<?xml version="1.0" encoding="UTF-8"?>

<!-- generated on 2023-07-27 22:50:35 by Eclipse SUMO duarouter Version 1.12.0
<configuration xmlns:xsi="http://www.w3.org/2001/XMLSchema-instance" xsi:noNamespaceSchemaLocation="http://sumo.dlr.de/xsd/duarouterConfiguration.xsd">

    <input>
        <net-file value="sq.net.xml"/>
        <route-files value="sq.trips.xml"/>
        <junction-taz value="true"/>
    </input>

    <output>
        <output-file value="sq.rou.xml"/>
        <alternatives-output value="sq.rou.alt.xml"/>
    </output>

    <processing>
        <weights.random-factor value="1.2"/>
    </processing>

    <time>
        <begin value="0"/>
        <end value="7200"/>
    </time>

    <report>
        <verbose value="true"/>
    </report>

    <random_number>
        <seed value="5"/>
    </random_number>

</configuration>
-->

<routes xmlns:xsi="http://www.w3.org/2001/XMLSchema-instance" xsi:noNamespaceSchemaLocation="http://sumo.dlr.de/xsd/routes_file.xsd">
    <vehicle id="0" depart="0.00">
        <route edges="416_4way_216to4way_215 414_4way_215to4way_214 412_4way_214to4way_213 410_4way_213to4way_212 408_4way_212to4way_211 409_4way_211to4way_236 454_4way_236to4way_261 501_4way_261to4way_286 550_4way_286to4way_311 601_4way_311to4way_336 650_4way_336to4way_361 701_4way_361to4way_386 750_4way_386to4way_411 801_4way_411to4way_436 850_4way_436to4way_461 901_4way_461to4way_486"/>
    </vehicle>
    <vehicle id="1" depart="0.80">
        <route edges="849_4way_436to4way_437 851_4way_437to4way_438 805_4way_438to4way_413 754_4way_413to4way_388 705_4way_388to4way_363 654_4way_363to4way_338 605_4way_338to4way_313 554_4way_313to4way_288 505_4way_288to4way_263 458_4way_263to4way_238 413_4way_238to4way_213 368_4way_213to4way_188"/>
    </vehicle>
    <vehicle id="2" depart="1.60">
        <route edges="553_4way_289to4way_288 551_4way_288to4way_287 549_4way_287to4way_286 547_4way_286to4way_285 545_4way_285to4way_284 543_4way_284to4way_283"/>
    </vehicle>
    <vehicle id="3" depart="2.40">
        <route edges="1168_4way_71to4way_70 1169_4way_70to4way_95 244_4way_95to4way_120 243_4way_120to4way_145 292_4way_145to4way_170 337_4way_170to4way_195 382_4way_195to4way_220 427_4way_220to4way_245 472_4way_245to4way_270 521_4way_270to4way_295 570_4way_295to4way_320 621_4way_320to4way_345 667_4way_345to4way_344 665_4way_344to4way_343 663_4way_343to4way_342 661_4way_342to4way_341 659_4way_341to4way_340 655_4way_340to4way_339 653_4way_339to4way_338 651_4way_338to4way_337 649_4way_337to4way_336 647_4way_336to4way_335 645_4way_335to4way_334 643_4way_334to4way_333 644_4way_333to4way_358 693_4way_358to4way_383 744_4way_383to4way_408 793_4way_408to4way_433 844_4way_433to4way_458 893_4way_458to4way_483"/>
    </vehicle>
    <vehicle id="4" depart="3.20">
        <route edges="445_4way_232to4way_233 447_4way_233to4way_234 449_4way_234to4way_235 451_4way_235to4way_236 453_4way_236to4way_237 455_4way_237to4way_238 457_4way_238to4way_239 459_4way_239to4way_240 461_4way_240to4way_241 463_4way_241to4way_242 465_4way_242to4way_243 467_4way_243to4way_244 469_4way_244to4way_245 471_4way_245to4way_246 473_4way_246to4way_247 475_4way_247to4way_248 432_4way_248to4way_223 387_4way_223to4way_198 342_4way_198to4way_173 297_4way_173to4way_148 251_4way_148to4way_123 252_4way_123to4way_98 1174_4way_98to4way_73 935_4way_73to4way_48"/>
    </vehicle>
    <vehicle id="5" depart="4.00">
        <route edges="364_4way_186to4way_211 409_4way_211to4way_236 453_4way_236to4way_237 455_4way_237to4way_238 457_4way_238to4way_239 459_4way_239to4way_240 461_4way_240to4way_241 463_4way_241to4way_242 465_4way_242to4way_243"/>
    </vehicle>
    <vehicle id="6" depart="4.80">
        <route edges="1118_4way_596to4way_571 1067_4way_571to4way_546 1064_4way_546to4way_545 1062_4way_545to4way_544 1060_4way_544to4way_543 1058_4way_543to4way_542 1056_4way_542to4way_541 1054_4way_541to4way_540 1050_4way_540to4way_539 1002_4way_539to4way_514 955_4way_514to4way_489 907_4way_489to4way_464 856_4way_464to4way_439 853_4way_439to4way_438 805_4way_438to4way_413 754_4way_413to4way_388 705_4way_388to4way_363 654_4way_363to4way_338 605_4way_338to4way_313 554_4way_313to4way_288 505_4way_288to4way_263 458_4way_263to4way_238 413_4way_238to4way_213 410_4way_213to4way_212"/>
    </vehicle>
    <vehicle id="7" depart="5.60">
        <route edges="159_3way_615to3way_616 161_3way_616to3way_617 163_3way_617to3way_618 165_3way_618to3way_619 167_3way_619to3way_620 169_3way_620to3way_621 171_3way_621to3way_622 173_3way_622to3way_623 127_3way_623to3way_599 123_3way_599to3way_574"/>
    </vehicle>
    <vehicle id="8" depart="6.40">
        <route edges="568_4way_319to4way_294 517_4way_294to4way_269 470_4way_269to4way_244 425_4way_244to4way_219 380_4way_219to4way_194 335_4way_194to4way_169 290_4way_169to4way_144 240_4way_144to4way_119 241_4way_119to4way_94 1167_4way_94to4way_69 858_4way_69to4way_44 40_4way_44to3way_19 37_3way_19to3way_18 31_3way_18to3way_17 29_3way_17to3way_16 25_3way_16to3way_15 21_3way_15to3way_14 19_3way_14to3way_13"/>
    </vehicle>
    <vehicle id="9" depart="7.20">
        <route edges="570_4way_320to4way_295 521_4way_295to4way_270 472_4way_270to4way_245 427_4way_245to4way_220 382_4way_220to4way_195 337_4way_195to4way_170 292_4way_170to4way_145 243_4way_145to4way_120 244_4way_120to4way_95 1169_4way_95to4way_70 877_4way_70to4way_45 857_4way_45to4way_44 835_4way_44to4way_43"/>
    </vehicle>
    <vehicle id="10" depart="8.00">
        <route edges="714_4way_368to4way_369 716_4way_369to4way_370 720_4way_370to4way_371 722_4way_371to4way_372 724_4way_372to4way_373 675_4way_373to4way_348 626_4way_348to4way_323 575_4way_323to4way_298 526_4way_298to4way_273"/>
    </vehicle>
    <vehicle id="11" depart="8.80">
        <route edges="1162_4way_68to4way_67 1160_4way_67to4way_66 1158_4way_66to4way_65 1156_4way_65to4way_64 1154_4way_64to4way_63 1152_4way_63to4way_62 1150_4way_62to4way_61 1148_4way_61to4way_60 1138_4way_60to4way_59 1139_4way_59to4way_84 211_4way_84to4way_109 210_4way_109to4way_134 270_4way_134to4way_159 315_4way_159to4way_184 360_4way_184to4way_209 405_4way_209to4way_234 450_4way_234to4way_259 495_4way_259to4way_284"/>
    </vehicle>
    <vehicle id="12" depart="9.60">
        <route edges="367_4way_189to4way_188 365_4way_188to4way_187 363_4way_187to4way_186 361_4way_186to4way_185 359_4way_185to4way_184 357_4way_184to4way_183 355_4way_183to4way_182 356_4way_182to4way_207 401_4way_207to4way_232 446_4way_232to4way_257 491_4way_257to4way_282 542_4way_282to4way_307 591_4way_307to4way_332 642_4way_332to4way_357 691_4way_357to4way_382 739_4way_382to4way_381 737_4way_381to4way_380 733_4way_380to4way_379 731_4way_379to4way_378 729_4way_378to4way_377 727_4way_377to4way_376 86_4way_376to3way_375 85_3way_375to3way_400 91_3way_400to3way_425 95_3way_425to3way_450 99_3way_450to3way_475"/>
    </vehicle>
    <vehicle id="13" depart="10.40">
        <route edges="574_4way_322to4way_297 525_4way_297to4way_272 476_4way_272to4way_247 431_4way_247to4way_222 386_4way_222to4way_197 341_4way_197to4way_172 338_4way_172to4way_171 336_4way_171to4way_170 334_4way_170to4way_169 332_4way_169to4way_168 330_4way_168to4way_167 328_4way_167to4way_166 326_4way_166to4way_165 324_4way_165to4way_164 322_4way_164to4way_163 320_4way_163to4way_162 318_4way_162to4way_161 316_4way_161to4way_160 314_4way_160to4way_159 312_4way_159to4way_158 310_4way_158to4way_157 308_4way_157to4way_156 306_4way_156to4way_155 304_4way_155to4way_154 302_4way_154to4way_153 300_4way_153to4way_152 298_4way_152to4way_151 28_4way_151to3way_150 17_3way_150to3way_125 7_3way_125to3way_100 8_3way_100to3way_75"/>
    </vehicle>
    <vehicle id="14" depart="11.20">
        <route edges="267_4way_133to4way_134 269_4way_134to4way_135 271_4way_135to4way_136 216_4way_136to4way_111 217_4way_111to4way_86"/>
    </vehicle>
    <vehicle id="15" depart="12.00">
        <route edges="1008_4way_542to4way_517 961_4way_517to4way_492 913_4way_492to4way_467 864_4way_467to4way_442 813_4way_442to4way_417 764_4way_417to4way_392 713_4way_392to4way_367 664_4way_367to4way_342 613_4way_342to4way_317 564_4way_317to4way_292 513_4way_292to4way_267 510_4way_267to4way_266 508_4way_266to4way_265 506_4way_265to4way_264 504_4way_264to4way_263 502_4way_263to4way_262 500_4way_262to4way_261 454_4way_261to4way_236 409_4way_236to4way_211 364_4way_211to4way_186 319_4way_186to4way_161 274_4way_161to4way_136 216_4way_136to4way_111 212_4way_111to4way_110 209_4way_110to4way_109 206_4way_109to4way_108 203_4way_108to4way_107 200_4way_107to4way_106 197_4way_106to4way_105 194_4way_105to4way_104"/>
    </vehicle>
    <vehicle id="16" depart="12.80">
        <route edges="408_4way_212to4way_211 406_4way_211to4way_210 404_4way_210to4way_209"/>
    </vehicle>
    <vehicle id="17" depart="13.60">
        <route edges="802_4way_413to4way_412 752_4way_412to4way_387 703_4way_387to4way_362 652_4way_362to4way_337 603_4way_337to4way_312 552_4way_312to4way_287 503_4way_287to4way_262 456_4way_262to4way_237 411_4way_237to4way_212 366_4way_212to4way_187 321_4way_187to4way_162 276_4way_162to4way_137 219_4way_137to4way_112 220_4way_112to4way_87 1153_4way_87to4way_62 719_4way_62to4way_37 13_4way_37to3way_12"/>
    </vehicle>
    <vehicle id="18" depart="14.40">
        <route edges="754_4way_413to4way_388 705_4way_388to4way_363 654_4way_363to4way_338"/>
    </vehicle>
    <vehicle id="19" depart="15.20">
        <route edges="509_4way_265to4way_290 560_4way_290to4way_315 608_4way_315to4way_316 610_4way_316to4way_317 612_4way_317to4way_318 614_4way_318to4way_319 616_4way_319to4way_320 620_4way_320to4way_321 622_4way_321to4way_322"/>
    </vehicle>
    <vehicle id="20" depart="16.00">
        <route edges="893_4way_483to4way_458 844_4way_458to4way_433 841_4way_433to4way_432 839_4way_432to4way_431"/>
    </vehicle>
    <vehicle id="21" depart="16.80">
        <route edges="88_3way_399to4way_398 773_4way_398to4way_397 771_4way_397to4way_396 769_4way_396to4way_395 767_4way_395to4way_394 765_4way_394to4way_393 763_4way_393to4way_392 761_4way_392to4way_391 759_4way_391to4way_390 760_4way_390to4way_415 809_4way_415to4way_440 860_4way_440to4way_465 909_4way_465to4way_490 957_4way_490to4way_515"/>
    </vehicle>
    <vehicle id="22" depart="17.60">
        <route edges="1159_4way_90to4way_65 777_4way_65to4way_40"/>
    </vehicle>
    <vehicle id="23" depart="18.40">
        <route edges="73_3way_300to3way_325 77_3way_325to3way_350 81_3way_350to3way_375 85_3way_375to3way_400 92_3way_400to4way_401 778_4way_401to4way_402"/>
    </vehicle>
    <vehicle id="24" depart="19.20">
        <route edges="889_4way_481to4way_456 840_4way_456to4way_431 789_4way_431to4way_406 740_4way_406to4way_381 689_4way_381to4way_356 640_4way_356to4way_331 589_4way_331to4way_306 586_4way_306to4way_305"/>
    </vehicle>
    <vehicle id="25" depart="20.00">
        <route edges="987_4way_508to4way_509 945_4way_509to4way_484 895_4way_484to4way_459 846_4way_459to4way_434 795_4way_434to4way_409 746_4way_409to4way_384 695_4way_384to4way_359 646_4way_359to4way_334 595_4way_334to4way_309 546_4way_309to4way_284 495_4way_284to4way_259 494_4way_259to4way_260 498_4way_260to4way_261 500_4way_261to4way_262"/>
    </vehicle>
    <vehicle id="26" depart="20.80">
        <route edges="142_3way_606to4way_581 1084_4way_581to4way_556 1035_4way_556to4way_531 984_4way_531to4way_506 983_4way_506to4way_507 985_4way_507to4way_508 987_4way_508to4way_509 989_4way_509to4way_510 993_4way_510to4way_511 995_4way_511to4way_512 997_4way_512to4way_513 999_4way_513to4way_514 1001_4way_514to4way_515 1003_4way_515to4way_516 1005_4way_516to4way_517 1007_4way_517to4way_518 1009_4way_518to4way_519 1011_4way_519to4way_520 1015_4way_520to4way_521 1017_4way_521to4way_522 1019_4way_522to4way_523 972_4way_523to4way_498 926_4way_498to4way_473 875_4way_473to4way_448 826_4way_448to4way_423"/>
    </vehicle>
    <vehicle id="27" depart="21.60">
        <route edges="434_4way_226to4way_251 479_4way_251to4way_276 528_4way_276to4way_301 579_4way_301to4way_326 628_4way_326to4way_351 679_4way_351to4way_376 727_4way_376to4way_377"/>
    </vehicle>
    <vehicle id="28" depart="22.40">
        <route edges="977_4way_503to4way_504 979_4way_504to4way_505 937_4way_505to4way_480 887_4way_480to4way_455 886_4way_455to4way_456 888_4way_456to4way_457 890_4way_457to4way_458 892_4way_458to4way_459 894_4way_459to4way_460 898_4way_460to4way_461 900_4way_461to4way_462 902_4way_462to4way_463 904_4way_463to4way_464 856_4way_464to4way_439 807_4way_439to4way_414 756_4way_414to4way_389"/>
    </vehicle>
    <vehicle id="29" depart="23.20">
        <route edges="682_4way_353to4way_354 684_4way_354to4way_355 686_4way_355to4way_356 688_4way_356to4way_357 690_4way_357to4way_358 692_4way_358to4way_359"/>
    </vehicle>
    <vehicle id="30" depart="24.00">
        <route edges="132_3way_601to4way_576 1074_4way_576to4way_551 1023_4way_551to4way_526 974_4way_526to4way_501 928_4way_501to4way_476 879_4way_476to4way_451 828_4way_451to4way_426 779_4way_426to4way_401 728_4way_401to4way_376 679_4way_376to4way_351 628_4way_351to4way_326 579_4way_326to4way_301 528_4way_301to4way_276 479_4way_276to4way_251 434_4way_251to4way_226 389_4way_226to4way_201 344_4way_201to4way_176"/>
    </vehicle>
    <vehicle id="31" depart="24.80">
        <route edges="35_3way_175to3way_200 47_3way_200to3way_225 56_3way_225to4way_226 433_4way_226to4way_227 435_4way_227to4way_228 437_4way_228to4way_229 439_4way_229to4way_230 441_4way_230to4way_231 443_4way_231to4way_232 445_4way_232to4way_233 447_4way_233to4way_234 449_4way_234to4way_235 451_4way_235to4way_236 453_4way_236to4way_237 455_4way_237to4way_238 457_4way_238to4way_239 460_4way_239to4way_264 507_4way_264to4way_289 556_4way_289to4way_314 607_4way_314to4way_339 656_4way_339to4way_364 707_4way_364to4way_389 756_4way_389to4way_414 807_4way_414to4way_439"/>
    </vehicle>
    <vehicle id="32" depart="25.60">
        <route edges="1035_4way_556to4way_531 984_4way_531to4way_506 939_4way_506to4way_481 889_4way_481to4way_456 886_4way_456to4way_455 884_4way_455to4way_454 834_4way_454to4way_429 785_4way_429to4way_404 734_4way_404to4way_379 685_4way_379to4way_354 634_4way_354to4way_329 585_4way_329to4way_304 534_4way_304to4way_279 485_4way_279to4way_254 440_4way_254to4way_229 395_4way_229to4way_204 392_4way_204to4way_203 390_4way_203to4way_202"/>
    </vehicle>
    <vehicle id="33" depart="26.40">
        <route edges="147_3way_609to3way_610 149_3way_610to3way_611 151_3way_611to3way_612 154_3way_612to4way_587 1098_4way_587to4way_562 1047_4way_562to4way_537 998_4way_537to4way_512 951_4way_512to4way_487 903_4way_487to4way_462 852_4way_462to4way_437 803_4way_437to4way_412 752_4way_412to4way_387 703_4way_387to4way_362 652_4way_362to4way_337 603_4way_337to4way_312 552_4way_312to4way_287 503_4way_287to4way_262 456_4way_262to4way_237 455_4way_237to4way_238 457_4way_238to4way_239 459_4way_239to4way_240 461_4way_240to4way_241 463_4way_241to4way_242 465_4way_242to4way_243 467_4way_243to4way_244 425_4way_244to4way_219 380_4way_219to4way_194 335_4way_194to4way_169 290_4way_169to4way_144 240_4way_144to4way_119"/>
    </vehicle>
    <vehicle id="34" depart="27.20">
        <route edges="149_3way_610to3way_611 151_3way_611to3way_612 153_3way_612to3way_613 155_3way_613to3way_614 158_3way_614to4way_589 1102_4way_589to4way_564 1051_4way_564to4way_539 1002_4way_539to4way_514 955_4way_514to4way_489 907_4way_489to4way_464 856_4way_464to4way_439 807_4way_439to4way_414 756_4way_414to4way_389 755_4way_389to4way_390 759_4way_390to4way_391 761_4way_391to4way_392 763_4way_392to4way_393 765_4way_393to4way_394"/>
    </vehicle>
    <vehicle id="35" depart="28.00">
        <route edges="746_4way_409to4way_384 745_4way_384to4way_385 747_4way_385to4way_386 749_4way_386to4way_387 751_4way_387to4way_388 753_4way_388to4way_389 755_4way_389to4way_390 759_4way_390to4way_391 761_4way_391to4way_392 763_4way_392to4way_393 765_4way_393to4way_394 767_4way_394to4way_395 769_4way_395to4way_396 771_4way_396to4way_397 773_4way_397to4way_398 726_4way_398to4way_373 675_4way_373to4way_348 626_4way_348to4way_323 575_4way_323to4way_298 526_4way_298to4way_273 477_4way_273to4way_248"/>
    </vehicle>
    <vehicle id="36" depart="28.80">
        <route edges="413_4way_213to4way_238 457_4way_238to4way_239 459_4way_239to4way_240 461_4way_240to4way_241 463_4way_241to4way_242 465_4way_242to4way_243 467_4way_243to4way_244 469_4way_244to4way_245 471_4way_245to4way_246 473_4way_246to4way_247 475_4way_247to4way_248"/>
    </vehicle>
    <vehicle id="37" depart="29.60">
        <route edges="179_3way_74to4way_73 1172_4way_73to4way_72 1170_4way_72to4way_71 1168_4way_71to4way_70 1169_4way_70to4way_95 244_4way_95to4way_120 243_4way_120to4way_145 292_4way_145to4way_170 337_4way_170to4way_195 382_4way_195to4way_220 427_4way_220to4way_245 472_4way_245to4way_270 521_4way_270to4way_295 570_4way_295to4way_320 621_4way_320to4way_345 670_4way_345to4way_370 721_4way_370to4way_395 770_4way_395to4way_420 821_4way_420to4way_445 870_4way_445to4way_470 921_4way_470to4way_495 964_4way_495to4way_494 962_4way_494to4way_493 960_4way_493to4way_492 958_4way_492to4way_491 959_4way_491to4way_516 1006_4way_516to4way_541 1057_4way_541to4way_566 1106_4way_566to4way_591"/>
    </vehicle>
    <vehicle id="38" depart="30.40">
        <route edges="100_3way_450to4way_451 878_4way_451to4way_452 880_4way_452to4way_453 882_4way_453to4way_454 834_4way_454to4way_429 785_4way_429to4way_404 734_4way_404to4way_379"/>
    </vehicle>
    <vehicle id="39" depart="31.20">
        <route edges="103_3way_475to3way_500 113_3way_500to3way_525 117_3way_525to3way_550 121_3way_550to3way_575 126_3way_575to4way_576 1122_4way_576to4way_577 1123_4way_577to4way_578 1124_4way_578to4way_579"/>
    </vehicle>
    <vehicle id="40" depart="32.00">
        <route edges="265_4way_133to4way_132 263_4way_132to4way_131 261_4way_131to4way_130 262_4way_130to4way_155 307_4way_155to4way_180 352_4way_180to4way_205 397_4way_205to4way_230 442_4way_230to4way_255 487_4way_255to4way_280 538_4way_280to4way_305 587_4way_305to4way_330 638_4way_330to4way_355"/>
    </vehicle>
    <vehicle id="41" depart="32.80">
        <route edges="859_4way_440to4way_441 861_4way_441to4way_442 863_4way_442to4way_443 865_4way_443to4way_444 867_4way_444to4way_445 869_4way_445to4way_446 871_4way_446to4way_447 873_4way_447to4way_448 98_4way_448to3way_449"/>
    </vehicle>
    <vehicle id="42" depart="33.60">
        <route edges="194_4way_104to4way_105 197_4way_105to4way_106 200_4way_106to4way_107 203_4way_107to4way_108 206_4way_108to4way_109 209_4way_109to4way_110 212_4way_110to4way_111 215_4way_111to4way_112 219_4way_112to4way_137 276_4way_137to4way_162 321_4way_162to4way_187"/>
    </vehicle>
    <vehicle id="43" depart="34.40">
        <route edges="152_3way_611to4way_586 1096_4way_586to4way_561 1045_4way_561to4way_536 996_4way_536to4way_511 949_4way_511to4way_486 901_4way_486to4way_461 850_4way_461to4way_436 801_4way_436to4way_411 750_4way_411to4way_386 701_4way_386to4way_361 650_4way_361to4way_336 601_4way_336to4way_311 550_4way_311to4way_286 501_4way_286to4way_261 454_4way_261to4way_236 409_4way_236to4way_211 364_4way_211to4way_186 319_4way_186to4way_161 274_4way_161to4way_136 216_4way_136to4way_111 217_4way_111to4way_86"/>
    </vehicle>
    <vehicle id="44" depart="35.20">
        <route edges="1195_4way_97to4way_96 1194_4way_96to4way_95 1193_4way_95to4way_94 1192_4way_94to4way_93 1191_4way_93to4way_92 1190_4way_92to4way_91 1189_4way_91to4way_90 1188_4way_90to4way_89 226_4way_89to4way_114 225_4way_114to4way_139 280_4way_139to4way_164 325_4way_164to4way_189 370_4way_189to4way_214 415_4way_214to4way_239 460_4way_239to4way_264 504_4way_264to4way_263 502_4way_263to4way_262 503_4way_262to4way_287 552_4way_287to4way_312 603_4way_312to4way_337"/>
    </vehicle>
    <vehicle id="45" depart="36.00">
        <route edges="757_4way_40to4way_39 735_4way_39to4way_38 718_4way_38to4way_37 696_4way_37to4way_36 697_4way_36to4way_61 1151_4way_61to4way_86 217_4way_86to4way_111 212_4way_111to4way_110 209_4way_110to4way_109 206_4way_109to4way_108 203_4way_108to4way_107 200_4way_107to4way_106 197_4way_106to4way_105 198_4way_105to4way_130 262_4way_130to4way_155 307_4way_155to4way_180 352_4way_180to4way_205 397_4way_205to4way_230 442_4way_230to4way_255 487_4way_255to4way_280 538_4way_280to4way_305 587_4way_305to4way_330 638_4way_330to4way_355"/>
    </vehicle>
    <vehicle id="46" depart="36.80">
        <route edges="416_4way_216to4way_215 414_4way_215to4way_214 415_4way_214to4way_239 457_4way_239to4way_238 455_4way_238to4way_237 453_4way_237to4way_236 451_4way_236to4way_235 449_4way_235to4way_234 447_4way_234to4way_233 445_4way_233to4way_232 443_4way_232to4way_231 441_4way_231to4way_230 439_4way_230to4way_229 437_4way_229to4way_228 435_4way_228to4way_227 433_4way_227to4way_226 56_4way_226to3way_225 55_3way_225to3way_250 63_3way_250to3way_275"/>
    </vehicle>
    <vehicle id="47" depart="37.60">
        <route edges="1023_4way_551to4way_526 974_4way_526to4way_501 928_4way_501to4way_476 927_4way_476to4way_477 929_4way_477to4way_478 931_4way_478to4way_479"/>
    </vehicle>
    <vehicle id="48" depart="38.40">
        <route edges="12_3way_13to3way_12 13_3way_12to4way_37 719_4way_37to4way_62 1153_4way_62to4way_87 220_4way_87to4way_112 219_4way_112to4way_137 276_4way_137to4way_162 321_4way_162to4way_187 366_4way_187to4way_212 411_4way_212to4way_237 456_4way_237to4way_262 503_4way_262to4way_287 552_4way_287to4way_312 603_4way_312to4way_337 652_4way_337to4way_362 703_4way_362to4way_387 752_4way_387to4way_412 803_4way_412to4way_437 852_4way_437to4way_462 903_4way_462to4way_487 951_4way_487to4way_512"/>
    </vehicle>
    <vehicle id="49" depart="39.20">
        <route edges="72_3way_3to4way_28 536_4way_28to4way_53 1031_4way_53to4way_78 193_4way_78to4way_103 192_4way_103to4way_128 258_4way_128to4way_153 303_4way_153to4way_178 348_4way_178to4way_203 392_4way_203to4way_204 394_4way_204to4way_205 396_4way_205to4way_206 398_4way_206to4way_207 400_4way_207to4way_208 402_4way_208to4way_209 404_4way_209to4way_210 406_4way_210to4way_211 408_4way_211to4way_212 410_4way_212to4way_213 412_4way_213to4way_214 414_4way_214to4way_215 416_4way_215to4way_216 418_4way_216to4way_217 420_4way_217to4way_218 422_4way_218to4way_219 425_4way_219to4way_244"/>
    </vehicle>
    <vehicle id="50" depart="40.00">
        <route edges="349_4way_179to4way_180 351_4way_180to4way_181 353_4way_181to4way_182 355_4way_182to4way_183 357_4way_183to4way_184 359_4way_184to4way_185 361_4way_185to4way_186 363_4way_186to4way_187 365_4way_187to4way_188 367_4way_188to4way_189 369_4way_189to4way_190"/>
    </vehicle>
    <vehicle id="51" depart="40.80">
        <route edges="1120_4way_597to4way_572 1069_4way_572to4way_547 1020_4way_547to4way_522 1017_4way_522to4way_521 1015_4way_521to4way_520 1011_4way_520to4way_519 1009_4way_519to4way_518 1007_4way_518to4way_517 1005_4way_517to4way_516"/>
    </vehicle>
    <vehicle id="52" depart="41.60">
        <route edges="649_4way_337to4way_336 647_4way_336to4way_335 645_4way_335to4way_334 643_4way_334to4way_333 641_4way_333to4way_332 639_4way_332to4way_331 637_4way_331to4way_330 633_4way_330to4way_329 631_4way_329to4way_328 632_4way_328to4way_353 683_4way_353to4way_378 732_4way_378to4way_403 783_4way_403to4way_428"/>
    </vehicle>
    <vehicle id="53" depart="42.40">
        <route edges="552_4way_287to4way_312 603_4way_312to4way_337 652_4way_337to4way_362 703_4way_362to4way_387 752_4way_387to4way_412 803_4way_412to4way_437 852_4way_437to4way_462 903_4way_462to4way_487 951_4way_487to4way_512 998_4way_512to4way_537 1047_4way_537to4way_562 1098_4way_562to4way_587"/>
    </vehicle>
    <vehicle id="54" depart="43.20">
        <route edges="825_4way_447to4way_422 774_4way_422to4way_397 725_4way_397to4way_372 674_4way_372to4way_347 625_4way_347to4way_322 574_4way_322to4way_297 571_4way_297to4way_296 569_4way_296to4way_295 567_4way_295to4way_294 565_4way_294to4way_293 563_4way_293to4way_292 561_4way_292to4way_291 559_4way_291to4way_290 555_4way_290to4way_289 553_4way_289to4way_288 551_4way_288to4way_287 549_4way_287to4way_286 547_4way_286to4way_285 545_4way_285to4way_284 543_4way_284to4way_283 541_4way_283to4way_282 539_4way_282to4way_281 537_4way_281to4way_280 533_4way_280to4way_279 485_4way_279to4way_254 440_4way_254to4way_229 395_4way_229to4way_204 350_4way_204to4way_179 305_4way_179to4way_154 260_4way_154to4way_129 195_4way_129to4way_104 196_4way_104to4way_79 1053_4way_79to4way_54 558_4way_54to4way_29 535_4way_29to4way_28"/>
    </vehicle>
    <vehicle id="55" depart="44.00">
        <route edges="1009_4way_519to4way_518 1007_4way_518to4way_517 1005_4way_517to4way_516 959_4way_516to4way_491 911_4way_491to4way_466 862_4way_466to4way_441 811_4way_441to4way_416 762_4way_416to4way_391 711_4way_391to4way_366 662_4way_366to4way_341 611_4way_341to4way_316 562_4way_316to4way_291 511_4way_291to4way_266 464_4way_266to4way_241 419_4way_241to4way_216 374_4way_216to4way_191 329_4way_191to4way_166 284_4way_166to4way_141 231_4way_141to4way_116 232_4way_116to4way_91 1189_4way_91to4way_90 1188_4way_90to4way_89 1187_4way_89to4way_88 1186_4way_88to4way_87 1185_4way_87to4way_86 1184_4way_86to4way_85 1183_4way_85to4way_84 1139_4way_84to4way_59"/>
    </vehicle>
    <vehicle id="56" depart="44.80">
        <route edges="577_4way_30to4way_55 1072_4way_55to4way_80 199_4way_80to4way_105 198_4way_105to4way_130 262_4way_130to4way_155 307_4way_155to4way_180 352_4way_180to4way_205 397_4way_205to4way_230 441_4way_230to4way_231 443_4way_231to4way_232 445_4way_232to4way_233 448_4way_233to4way_258 493_4way_258to4way_283 544_4way_283to4way_308 593_4way_308to4way_333 644_4way_333to4way_358 693_4way_358to4way_383 744_4way_383to4way_408 793_4way_408to4way_433 844_4way_433to4way_458 893_4way_458to4way_483 943_4way_483to4way_508 988_4way_508to4way_533 1038_4way_533to4way_534 1040_4way_534to4way_535 1042_4way_535to4way_536 1044_4way_536to4way_537 1046_4way_537to4way_538 1048_4way_538to4way_539 1050_4way_539to4way_540"/>
    </vehicle>
    <vehicle id="57" depart="45.60">
        <route edges="842_4way_432to4way_457 891_4way_457to4way_482 941_4way_482to4way_507 986_4way_507to4way_532 1037_4way_532to4way_557 1086_4way_557to4way_582 1130_4way_582to4way_583 1131_4way_583to4way_584 1132_4way_584to4way_585 1133_4way_585to4way_586 1134_4way_586to4way_587 1135_4way_587to4way_588 1136_4way_588to4way_589 1137_4way_589to4way_590 1140_4way_590to4way_591 1141_4way_591to4way_592 1142_4way_592to4way_593"/>
    </vehicle>
    <vehicle id="58" depart="46.40">
        <route edges="803_4way_412to4way_437 852_4way_437to4way_462 903_4way_462to4way_487 950_4way_487to4way_488 952_4way_488to4way_489 954_4way_489to4way_490 956_4way_490to4way_491 958_4way_491to4way_492 960_4way_492to4way_493 962_4way_493to4way_494 964_4way_494to4way_495"/>
    </vehicle>
    <vehicle id="59" depart="47.20">
        <route edges="860_4way_440to4way_465 909_4way_465to4way_490 956_4way_490to4way_491 958_4way_491to4way_492 960_4way_492to4way_493 962_4way_493to4way_494 964_4way_494to4way_495"/>
    </vehicle>
    <vehicle id="60" depart="48.00">
        <route edges="648_4way_335to4way_360 698_4way_360to4way_361 700_4way_361to4way_362 702_4way_362to4way_363 704_4way_363to4way_364 706_4way_364to4way_365 708_4way_365to4way_366"/>
    </vehicle>
    <vehicle id="61" depart="48.80">
        <route edges="459_4way_239to4way_240 461_4way_240to4way_241 463_4way_241to4way_242 465_4way_242to4way_243 467_4way_243to4way_244 469_4way_244to4way_245 471_4way_245to4way_246 473_4way_246to4way_247 476_4way_247to4way_272 525_4way_272to4way_297 574_4way_297to4way_322 625_4way_322to4way_347 674_4way_347to4way_372 725_4way_372to4way_397 774_4way_397to4way_422 825_4way_422to4way_447 874_4way_447to4way_472 925_4way_472to4way_497"/>
    </vehicle>
    <vehicle id="62" depart="49.60">
        <route edges="455_4way_238to4way_237 453_4way_237to4way_236 451_4way_236to4way_235 449_4way_235to4way_234 447_4way_234to4way_233 448_4way_233to4way_258 493_4way_258to4way_283"/>
    </vehicle>
    <vehicle id="63" depart="50.40">
        <route edges="197_4way_105to4way_106 200_4way_106to4way_107 203_4way_107to4way_108 206_4way_108to4way_109 209_4way_109to4way_110 212_4way_110to4way_111 215_4way_111to4way_112 220_4way_112to4way_87 1153_4way_87to4way_62 719_4way_62to4way_37 13_4way_37to3way_12"/>
    </vehicle>
    <vehicle id="64" depart="51.20">
        <route edges="979_4way_504to4way_505 981_4way_505to4way_506 983_4way_506to4way_507 985_4way_507to4way_508 987_4way_508to4way_509 989_4way_509to4way_510 993_4way_510to4way_511 995_4way_511to4way_512 997_4way_512to4way_513 999_4way_513to4way_514 955_4way_514to4way_489"/>
    </vehicle>
    <vehicle id="65" depart="52.00">
        <route edges="693_4way_358to4way_383 744_4way_383to4way_408 792_4way_408to4way_409 794_4way_409to4way_410 798_4way_410to4way_411 800_4way_411to4way_412 802_4way_412to4way_413"/>
    </vehicle>
    <vehicle id="66" depart="52.80">
        <route edges="1052_4way_55to4way_54 1030_4way_54to4way_53 1013_4way_53to4way_52 991_4way_52to4way_51 112_4way_51to3way_50 111_3way_50to3way_75 8_3way_75to3way_100 7_3way_100to3way_125 17_3way_125to3way_150 27_3way_150to3way_175 35_3way_175to3way_200"/>
    </vehicle>
    <vehicle id="67" depart="53.60">
        <route edges="1047_4way_562to4way_537 998_4way_537to4way_512 951_4way_512to4way_487 903_4way_487to4way_462 852_4way_462to4way_437 803_4way_437to4way_412 752_4way_412to4way_387 703_4way_387to4way_362 652_4way_362to4way_337 603_4way_337to4way_312 552_4way_312to4way_287 503_4way_287to4way_262 456_4way_262to4way_237"/>
    </vehicle>
    <vehicle id="68" depart="54.40">
        <route edges="707_4way_389to4way_364 656_4way_364to4way_339 607_4way_339to4way_314 604_4way_314to4way_313 602_4way_313to4way_312"/>
    </vehicle>
    <vehicle id="69" depart="55.20">