<routes xmlns:xsi="http://www.w3.org/2001/XMLSchema-instance" xsi:noNamespaceSchemaLocation="http://sumo.dlr.de/xsd/routes_file.xsd">
<trip id="0" depart="0.0" fromJunction="4way_216" toJunction="4way_486"/>
<trip id="1" depart="0.8" fromJunction="4way_436" toJunction="4way_188"/>
<trip id="2" depart="1.6" fromJunction="4way_289" toJunction="4way_283"/>
<trip id="3" depart="2.4000000000000004" fromJunction="4way_71" toJunction="4way_483"/>
<trip id="4" depart="3.2" fromJunction="4way_232" toJunction="4way_48"/>
<trip id="5" depart="4.0" fromJunction="4way_186" toJunction="4way_243"/>
<trip id="6" depart="4.800000000000001" fromJunction="4way_596" toJunction="4way_212"/>
<trip id="7" depart="5.6000000000000005" fromJunction="3way_615" toJunction="3way_574"/>
<trip id="8" depart="6.4" fromJunction="4way_319" toJunction="3way_13"/>
<trip id="9" depart="7.2" fromJunction="4way_320" toJunction="4way_43"/>
<trip id="10" depart="8.0" fromJunction="4way_368" toJunction="4way_273"/>
<trip id="11" depart="8.8" fromJunction="4way_68" toJunction="4way_284"/>
<trip id="12" depart="9.600000000000001" fromJunction="4way_189" toJunction="3way_475"/>
<trip id="13" depart="10.4" fromJunction="4way_322" toJunction="3way_75"/>
<trip id="14" depart="11.200000000000001" fromJunction="4way_133" toJunction="4way_86"/>
<trip id="15" depart="12.0" fromJunction="4way_542" toJunction="4way_104"/>
<trip id="16" depart="12.8" fromJunction="4way_212" toJunction="4way_209"/>
<trip id="17" depart="13.600000000000001" fromJunction="4way_413" toJunction="3way_12"/>
<trip id="18" depart="14.4" fromJunction="4way_413" toJunction="4way_338"/>
<trip id="19" depart="15.200000000000001" fromJunction="4way_265" toJunction="4way_322"/>
<trip id="20" depart="16.0" fromJunction="4way_483" toJunction="4way_431"/>
<trip id="21" depart="16.8" fromJunction="3way_399" toJunction="4way_515"/>
<trip id="22" depart="17.6" fromJunction="4way_90" toJunction="4way_40"/>
<trip id="23" depart="18.400000000000002" fromJunction="3way_300" toJunction="4way_402"/>
<trip id="24" depart="19.200000000000003" fromJunction="4way_481" toJunction="4way_305"/>
<trip id="25" depart="20.0" fromJunction="4way_508" toJunction="4way_262"/>
<trip id="26" depart="20.8" fromJunction="3way_606" toJunction="4way_423"/>
<trip id="27" depart="21.6" fromJunction="4way_226" toJunction="4way_377"/>
<trip id="28" depart="22.400000000000002" fromJunction="4way_503" toJunction="4way_389"/>
<trip id="29" depart="23.200000000000003" fromJunction="4way_353" toJunction="4way_359"/>
<trip id="30" depart="24.0" fromJunction="3way_601" toJunction="4way_176"/>
<trip id="31" depart="24.8" fromJunction="3way_175" toJunction="4way_439"/>
<trip id="32" depart="25.6" fromJunction="4way_556" toJunction="4way_202"/>
<trip id="33" depart="26.400000000000002" fromJunction="3way_609" toJunction="4way_119"/>
<trip id="34" depart="27.200000000000003" fromJunction="3way_610" toJunction="4way_394"/>
<trip id="35" depart="28.0" fromJunction="4way_409" toJunction="4way_248"/>
<trip id="36" depart="28.8" fromJunction="4way_213" toJunction="4way_248"/>
<trip id="37" depart="29.6" fromJunction="3way_74" toJunction="4way_591"/>
<trip id="38" depart="30.400000000000002" fromJunction="3way_450" toJunction="4way_379"/>
<trip id="39" depart="31.200000000000003" fromJunction="3way_475" toJunction="4way_579"/>
<trip id="40" depart="32.0" fromJunction="4way_133" toJunction="4way_355"/>
<trip id="41" depart="32.800000000000004" fromJunction="4way_440" toJunction="3way_449"/>
<trip id="42" depart="33.6" fromJunction="4way_104" toJunction="4way_187"/>
<trip id="43" depart="34.4" fromJunction="3way_611" toJunction="4way_86"/>
<trip id="44" depart="35.2" fromJunction="4way_97" toJunction="4way_337"/>
<trip id="45" depart="36.0" fromJunction="4way_40" toJunction="4way_355"/>
<trip id="46" depart="36.800000000000004" fromJunction="4way_216" toJunction="3way_275"/>
<trip id="47" depart="37.6" fromJunction="4way_551" toJunction="4way_479"/>
<trip id="48" depart="38.400000000000006" fromJunction="3way_13" toJunction="4way_512"/>
<trip id="49" depart="39.2" fromJunction="3way_3" toJunction="4way_244"/>
<trip id="50" depart="40.0" fromJunction="4way_179" toJunction="4way_190"/>
<trip id="51" depart="40.800000000000004" fromJunction="4way_597" toJunction="4way_516"/>
<trip id="52" depart="41.6" fromJunction="4way_337" toJunction="4way_428"/>
<trip id="53" depart="42.400000000000006" fromJunction="4way_287" toJunction="4way_587"/>
<trip id="54" depart="43.2" fromJunction="4way_447" toJunction="4way_28"/>
<trip id="55" depart="44.0" fromJunction="4way_519" toJunction="4way_59"/>
<trip id="56" depart="44.800000000000004" fromJunction="4way_30" toJunction="4way_540"/>
<trip id="57" depart="45.6" fromJunction="4way_432" toJunction="4way_593"/>
<trip id="58" depart="46.400000000000006" fromJunction="4way_412" toJunction="4way_495"/>
<trip id="59" depart="47.2" fromJunction="4way_440" toJunction="4way_495"/>
<trip id="60" depart="48.0" fromJunction="4way_335" toJunction="4way_366"/>
<trip id="61" depart="48.800000000000004" fromJunction="4way_239" toJunction="4way_497"/>
<trip id="62" depart="49.6" fromJunction="4way_238" toJunction="4way_283"/>
<trip id="63" depart="50.400000000000006" fromJunction="4way_105" toJunction="3way_12"/>
<trip id="64" depart="51.2" fromJunction="4way_504" toJunction="4way_489"/>
<trip id="65" depart="52.0" fromJunction="4way_358" toJunction="4way_413"/>
<trip id="66" depart="52.800000000000004" fromJunction="4way_55" toJunction="3way_200"/>
<trip id="67" depart="53.6" fromJunction="4way_562" toJunction="4way_237"/>
<trip id="68" depart="54.400000000000006" fromJunction="4way_389" toJunction="4way_312"/>
<trip id="69" depart="55.2" fromJunction="4way_383" toJunction="4way_364"/>
<trip id="70" depart="56.0" fromJunction="4way_556" toJunction="4way_146"/>
<trip id="71" depart="56.800000000000004" fromJunction="4way_71" toJunction="4way_458"/>
<trip id="72" depart="57.6" fromJunction="4way_41" toJunction="4way_468"/>
<trip id="73" depart="58.400000000000006" fromJunction="4way_496" toJunction="3way_607"/>
<trip id="74" depart="59.2" fromJunction="4way_598" toJunction="4way_191"/>
<trip id="75" depart="60.0" fromJunction="4way_295" toJunction="4way_26"/>
<trip id="76" depart="60.800000000000004" fromJunction="4way_388" toJunction="4way_226"/>
<trip id="77" depart="61.6" fromJunction="4way_544" toJunction="3way_400"/>
<trip id="78" depart="62.400000000000006" fromJunction="4way_237" toJunction="4way_493"/>
<trip id="79" depart="63.2" fromJunction="3way_524" toJunction="4way_582"/>
<trip id="80" depart="64.0" fromJunction="4way_159" toJunction="4way_515"/>
<trip id="81" depart="64.8" fromJunction="4way_270" toJunction="4way_316"/>
<trip id="82" depart="65.60000000000001" fromJunction="4way_95" toJunction="4way_223"/>
<trip id="83" depart="66.4" fromJunction="4way_431" toJunction="3way_8"/>
<trip id="84" depart="67.2" fromJunction="4way_376" toJunction="4way_441"/>
<trip id="85" depart="68.0" fromJunction="3way_299" toJunction="4way_61"/>
<trip id="86" depart="68.8" fromJunction="3way_12" toJunction="4way_252"/>
<trip id="87" depart="69.60000000000001" fromJunction="4way_53" toJunction="4way_268"/>
<trip id="88" depart="70.4" fromJunction="4way_72" toJunction="4way_206"/>
<trip id="89" depart="71.2" fromJunction="3way_20" toJunction="4way_41"/>
<trip id="90" depart="72.0" fromJunction="4way_463" toJunction="4way_276"/>
<trip id="91" depart="72.8" fromJunction="4way_253" toJunction="4way_362"/>
<trip id="92" depart="73.60000000000001" fromJunction="4way_363" toJunction="4way_172"/>
<trip id="93" depart="74.4" fromJunction="4way_562" toJunction="4way_286"/>
<trip id="94" depart="75.2" fromJunction="4way_255" toJunction="4way_441"/>
<trip id="95" depart="76.0" fromJunction="4way_402" toJunction="4way_457"/>
<trip id="96" depart="76.80000000000001" fromJunction="4way_322" toJunction="4way_27"/>
<trip id="97" depart="77.60000000000001" fromJunction="4way_160" toJunction="4way_591"/>
<trip id="98" depart="78.4" fromJunction="4way_503" toJunction="4way_103"/>
<trip id="99" depart="79.2" fromJunction="4way_433" toJunction="3way_374"/>
<trip id="100" depart="80.0" fromJunction="4way_490" toJunction="4way_255"/>
<trip id="101" depart="80.80000000000001" fromJunction="4way_501" toJunction="4way_132"/>
<trip id="102" depart="81.60000000000001" fromJunction="3way_499" toJunction="3way_16"/>
<trip id="103" depart="82.4" fromJunction="4way_159" toJunction="4way_215"/>
<trip id="104" depart="83.2" fromJunction="4way_146" toJunction="4way_311"/>
<trip id="105" depart="84.0" fromJunction="4way_502" toJunction="4way_473"/>
<trip id="106" depart="84.80000000000001" fromJunction="4way_79" toJunction="4way_539"/>
<trip id="107" depart="85.60000000000001" fromJunction="4way_292" toJunction="3way_13"/>
<trip id="108" depart="86.4" fromJunction="4way_232" toJunction="4way_380"/>
<trip id="109" depart="87.2" fromJunction="4way_294" toJunction="4way_537"/>
<trip id="110" depart="88.0" fromJunction="4way_345" toJunction="4way_588"/>
<trip id="111" depart="88.80000000000001" fromJunction="4way_343" toJunction="4way_229"/>
<trip id="112" depart="89.60000000000001" fromJunction="4way_447" toJunction="4way_27"/>
<trip id="113" depart="90.4" fromJunction="4way_477" toJunction="4way_340"/>
<trip id="114" depart="91.2" fromJunction="4way_441" toJunction="4way_372"/>
<trip id="115" depart="92.0" fromJunction="4way_452" toJunction="4way_503"/>
<trip id="116" depart="92.80000000000001" fromJunction="3way_16" toJunction="4way_585"/>
<trip id="117" depart="93.60000000000001" fromJunction="4way_283" toJunction="4way_352"/>
<trip id="118" depart="94.4" fromJunction="4way_309" toJunction="4way_82"/>
<trip id="119" depart="95.2" fromJunction="4way_512" toJunction="4way_304"/>
<trip id="120" depart="96.0" fromJunction="3way_500" toJunction="4way_220"/>
<trip id="121" depart="96.80000000000001" fromJunction="3way_250" toJunction="4way_585"/>
<trip id="122" depart="97.60000000000001" fromJunction="4way_407" toJunction="4way_241"/>
<trip id="123" depart="98.4" fromJunction="4way_551" toJunction="4way_187"/>
<trip id="124" depart="99.2" fromJunction="4way_135" toJunction="3way_75"/>
<trip id="125" depart="100.0" fromJunction="4way_272" toJunction="4way_356"/>
<trip id="126" depart="100.80000000000001" fromJunction="4way_142" toJunction="4way_417"/>
<trip id="127" depart="101.60000000000001" fromJunction="3way_618" toJunction="4way_271"/>
<trip id="128" depart="102.4" fromJunction="4way_462" toJunction="4way_536"/>
<trip id="129" depart="103.2" fromJunction="4way_529" toJunction="4way_597"/>
<trip id="130" depart="104.0" fromJunction="3way_607" toJunction="4way_303"/>
<trip id="131" depart="104.80000000000001" fromJunction="4way_97" toJunction="3way_11"/>
<trip id="132" depart="105.60000000000001" fromJunction="4way_143" toJunction="4way_90"/>
<trip id="133" depart="106.4" fromJunction="4way_512" toJunction="4way_354"/>
<trip id="134" depart="107.2" fromJunction="4way_85" toJunction="3way_449"/>
<trip id="135" depart="108.0" fromJunction="4way_420" toJunction="4way_273"/>
<trip id="136" depart="108.80000000000001" fromJunction="4way_597" toJunction="4way_81"/>
<trip id="137" depart="109.60000000000001" fromJunction="4way_397" toJunction="4way_153"/>
<trip id="138" depart="110.4" fromJunction="4way_368" toJunction="4way_272"/>
<trip id="139" depart="111.2" fromJunction="4way_370" toJunction="4way_39"/>
<trip id="140" depart="112.0" fromJunction="4way_569" toJunction="4way_529"/>
<trip id="141" depart="112.80000000000001" fromJunction="3way_9" toJunction="4way_413"/>
<trip id="142" depart="113.60000000000001" fromJunction="3way_25" toJunction="4way_231"/>
<trip id="143" depart="114.4" fromJunction="4way_559" toJunction="4way_323"/>
<trip id="144" depart="115.2" fromJunction="4way_189" toJunction="4way_260"/>
<trip id="145" depart="116.0" fromJunction="3way_175" toJunction="4way_556"/>
<trip id="146" depart="116.80000000000001" fromJunction="4way_77" toJunction="4way_144"/>
<trip id="147" depart="117.60000000000001" fromJunction="4way_53" toJunction="4way_485"/>
<trip id="148" depart="118.4" fromJunction="4way_195" toJunction="3way_609"/>
<trip id="149" depart="119.2" fromJunction="4way_572" toJunction="4way_198"/>
<trip id="150" depart="120.0" fromJunction="4way_542" toJunction="4way_296"/>
<trip id="151" depart="120.80000000000001" fromJunction="3way_619" toJunction="4way_580"/>
<trip id="152" depart="121.60000000000001" fromJunction="4way_178" toJunction="4way_582"/>
<trip id="153" depart="122.4" fromJunction="3way_299" toJunction="3way_250"/>
<trip id="154" depart="123.2" fromJunction="3way_8" toJunction="4way_366"/>
<trip id="155" depart="124.0" fromJunction="3way_25" toJunction="4way_492"/>
<trip id="156" depart="124.80000000000001" fromJunction="3way_614" toJunction="3way_620"/>
<trip id="157" depart="125.60000000000001" fromJunction="4way_378" toJunction="4way_115"/>
<trip id="158" depart="126.4" fromJunction="4way_62" toJunction="4way_233"/>
<trip id="159" depart="127.2" fromJunction="4way_391" toJunction="4way_170"/>
<trip id="160" depart="128.0" fromJunction="3way_275" toJunction="4way_179"/>
<trip id="161" depart="128.8" fromJunction="4way_105" toJunction="3way_324"/>
<trip id="162" depart="129.6" fromJunction="4way_209" toJunction="4way_54"/>
<trip id="163" depart="130.4" fromJunction="4way_465" toJunction="4way_290"/>
<trip id="164" depart="131.20000000000002" fromJunction="4way_157" toJunction="4way_404"/>
<trip id="165" depart="132.0" fromJunction="4way_193" toJunction="4way_526"/>
<trip id="166" depart="132.8" fromJunction="4way_490" toJunction="3way_349"/>
<trip id="167" depart="133.6" fromJunction="4way_592" toJunction="4way_43"/>
<trip id="168" depart="134.4" fromJunction="4way_82" toJunction="4way_29"/>
<trip id="169" depart="135.20000000000002" fromJunction="4way_229" toJunction="4way_512"/>
<trip id="170" depart="136.0" fromJunction="4way_202" toJunction="4way_32"/>
<trip id="171" depart="136.8" fromJunction="3way_149" toJunction="4way_259"/>
<trip id="172" depart="137.6" fromJunction="3way_622" toJunction="4way_368"/>
<trip id="173" depart="138.4" fromJunction="4way_180" toJunction="4way_36"/>
<trip id="174" depart="139.20000000000002" fromJunction="4way_547" toJunction="4way_362"/>
<trip id="175" depart="140.0" fromJunction="3way_22" toJunction="4way_264"/>
<trip id="176" depart="140.8" fromJunction="4way_460" toJunction="4way_383"/>
<trip id="177" depart="141.6" fromJunction="4way_265" toJunction="4way_286"/>
<trip id="178" depart="142.4" fromJunction="3way_300" toJunction="4way_304"/>
<trip id="179" depart="143.20000000000002" fromJunction="4way_497" toJunction="4way_357"/>
<trip id="180" depart="144.0" fromJunction="4way_271" toJunction="4way_52"/>
<trip id="181" depart="144.8" fromJunction="4way_209" toJunction="4way_411"/>
<trip id="182" depart="145.6" fromJunction="4way_234" toJunction="4way_495"/>
<trip id="183" depart="146.4" fromJunction="4way_457" toJunction="4way_341"/>
<trip id="184" depart="147.20000000000002" fromJunction="4way_390" toJunction="4way_271"/>
<trip id="185" depart="148.0" fromJunction="4way_505" toJunction="4way_540"/>
<trip id="186" depart="148.8" fromJunction="4way_114" toJunction="4way_267"/>
<trip id="187" depart="149.6" fromJunction="4way_201" toJunction="4way_303"/>
<trip id="188" depart="150.4" fromJunction="4way_547" toJunction="4way_318"/>
<trip id="189" depart="151.20000000000002" fromJunction="4way_587" toJunction="4way_234"/>
<trip id="190" depart="152.0" fromJunction="4way_209" toJunction="4way_120"/>
<trip id="191" depart="152.8" fromJunction="4way_337" toJunction="4way_447"/>
<trip id="192" depart="153.60000000000002" fromJunction="4way_346" toJunction="4way_119"/>
<trip id="193" depart="154.4" fromJunction="4way_176" toJunction="4way_44"/>
<trip id="194" depart="155.20000000000002" fromJunction="4way_457" toJunction="4way_588"/>
<trip id="195" depart="156.0" fromJunction="4way_283" toJunction="3way_424"/>
<trip id="196" depart="156.8" fromJunction="4way_569" toJunction="4way_578"/>
<trip id="197" depart="157.60000000000002" fromJunction="4way_547" toJunction="3way_21"/>
<trip id="198" depart="158.4" fromJunction="4way_381" toJunction="4way_356"/>
<trip id="199" depart="159.20000000000002" fromJunction="4way_27" toJunction="3way_11"/>
<trip id="200" depart="160.0" fromJunction="4way_97" toJunction="4way_507"/>
<trip id="201" depart="160.8" fromJunction="4way_347" toJunction="3way_608"/>
<trip id="202" depart="161.60000000000002" fromJunction="4way_184" toJunction="4way_295"/>
<trip id="203" depart="162.4" fromJunction="4way_178" toJunction="4way_480"/>
<trip id="204" depart="163.20000000000002" fromJunction="3way_21" toJunction="4way_363"/>
<trip id="205" depart="164.0" fromJunction="4way_358" toJunction="3way_10"/>
<trip id="206" depart="164.8" fromJunction="4way_478" toJunction="3way_524"/>
<trip id="207" depart="165.60000000000002" fromJunction="4way_503" toJunction="4way_577"/>
<trip id="208" depart="166.4" fromJunction="3way_8" toJunction="3way_275"/>
<trip id="209" depart="167.20000000000002" fromJunction="4way_438" toJunction="3way_525"/>
<trip id="210" depart="168.0" fromJunction="4way_473" toJunction="4way_223"/>
<trip id="211" depart="168.8" fromJunction="4way_251" toJunction="4way_58"/>
<trip id="212" depart="169.60000000000002" fromJunction="4way_160" toJunction="4way_164"/>
<trip id="213" depart="170.4" fromJunction="3way_474" toJunction="4way_448"/>
<trip id="214" depart="171.20000000000002" fromJunction="4way_479" toJunction="4way_118"/>
<trip id="215" depart="172.0" fromJunction="4way_539" toJunction="4way_303"/>
<trip id="216" depart="172.8" fromJunction="4way_589" toJunction="4way_378"/>
<trip id="217" depart="173.60000000000002" fromJunction="4way_283" toJunction="4way_585"/>
<trip id="218" depart="174.4" fromJunction="4way_454" toJunction="4way_586"/>
<trip id="219" depart="175.20000000000002" fromJunction="4way_133" toJunction="4way_66"/>
<trip id="220" depart="176.0" fromJunction="4way_244" toJunction="4way_431"/>
<trip id="221" depart="176.8" fromJunction="3way_174" toJunction="4way_596"/>
<trip id="222" depart="177.60000000000002" fromJunction="4way_256" toJunction="4way_178"/>
<trip id="223" depart="178.4" fromJunction="4way_373" toJunction="4way_44"/>
<trip id="224" depart="179.20000000000002" fromJunction="4way_271" toJunction="4way_123"/>
<trip id="225" depart="180.0" fromJunction="4way_498" toJunction="4way_30"/>
<trip id="226" depart="180.8" fromJunction="3way_604" toJunction="4way_428"/>
<trip id="227" depart="181.60000000000002" fromJunction="4way_178" toJunction="4way_422"/>
<trip id="228" depart="182.4" fromJunction="3way_374" toJunction="4way_390"/>
<trip id="229" depart="183.20000000000002" fromJunction="4way_495" toJunction="4way_441"/>
<trip id="230" depart="184.0" fromJunction="4way_157" toJunction="4way_229"/>
<trip id="231" depart="184.8" fromJunction="4way_142" toJunction="4way_82"/>
<trip id="232" depart="185.60000000000002" fromJunction="4way_376" toJunction="4way_253"/>
<trip id="233" depart="186.4" fromJunction="4way_155" toJunction="4way_109"/>
<trip id="234" depart="187.20000000000002" fromJunction="4way_253" toJunction="4way_419"/>
<trip id="235" depart="188.0" fromJunction="4way_297" toJunction="4way_335"/>
<trip id="236" depart="188.8" fromJunction="4way_270" toJunction="4way_89"/>
<trip id="237" depart="189.60000000000002" fromJunction="4way_192" toJunction="4way_247"/>
<trip id="238" depart="190.4" fromJunction="4way_123" toJunction="4way_540"/>
<trip id="239" depart="191.20000000000002" fromJunction="4way_134" toJunction="4way_523"/>
<trip id="240" depart="192.0" fromJunction="4way_529" toJunction="3way_574"/>
<trip id="241" depart="192.8" fromJunction="4way_183" toJunction="4way_76"/>
<trip id="242" depart="193.60000000000002" fromJunction="4way_213" toJunction="3way_275"/>
<trip id="243" depart="194.4" fromJunction="4way_146" toJunction="4way_207"/>
<trip id="244" depart="195.20000000000002" fromJunction="4way_461" toJunction="4way_123"/>
<trip id="245" depart="196.0" fromJunction="4way_587" toJunction="4way_254"/>
<trip id="246" depart="196.8" fromJunction="4way_582" toJunction="4way_146"/>
<trip id="247" depart="197.60000000000002" fromJunction="4way_204" toJunction="4way_536"/>
<trip id="248" depart="198.4" fromJunction="4way_507" toJunction="4way_184"/>
<trip id="249" depart="199.20000000000002" fromJunction="4way_410" toJunction="4way_428"/>
<trip id="250" depart="200.0" fromJunction="4way_57" toJunction="4way_230"/>
<trip id="251" depart="200.8" fromJunction="4way_192" toJunction="4way_136"/>
<trip id="252" depart="201.60000000000002" fromJunction="4way_571" toJunction="4way_31"/>
<trip id="253" depart="202.4" fromJunction="3way_224" toJunction="4way_195"/>
<trip id="254" depart="203.20000000000002" fromJunction="4way_59" toJunction="4way_503"/>
<trip id="255" depart="204.0" fromJunction="4way_256" toJunction="3way_605"/>
<trip id="256" depart="204.8" fromJunction="4way_240" toJunction="4way_591"/>
<trip id="257" depart="205.60000000000002" fromJunction="4way_141" toJunction="4way_488"/>
<trip id="258" depart="206.4" fromJunction="4way_156" toJunction="4way_327"/>
<trip id="259" depart="207.20000000000002" fromJunction="4way_470" toJunction="4way_165"/>
<trip id="260" depart="208.0" fromJunction="4way_379" toJunction="4way_411"/>
<trip id="261" depart="208.8" fromJunction="4way_141" toJunction="3way_19"/>
<trip id="262" depart="209.60000000000002" fromJunction="4way_57" toJunction="3way_5"/>
<trip id="263" depart="210.4" fromJunction="4way_546" toJunction="4way_211"/>
<trip id="264" depart="211.20000000000002" fromJunction="4way_582" toJunction="3way_614"/>
<trip id="265" depart="212.0" fromJunction="4way_156" toJunction="3way_16"/>
<trip id="266" depart="212.8" fromJunction="4way_329" toJunction="4way_488"/>
<trip id="267" depart="213.60000000000002" fromJunction="3way_525" toJunction="4way_402"/>
<trip id="268" depart="214.4" fromJunction="4way_465" toJunction="4way_362"/>
<trip id="269" depart="215.20000000000002" fromJunction="4way_397" toJunction="4way_115"/>
<trip id="270" depart="216.0" fromJunction="4way_289" toJunction="3way_2"/>
<trip id="271" depart="216.8" fromJunction="4way_537" toJunction="4way_138"/>
<trip id="272" depart="217.60000000000002" fromJunction="3way_11" toJunction="4way_597"/>
<trip id="273" depart="218.4" fromJunction="4way_593" toJunction="4way_490"/>
<trip id="274" depart="219.20000000000002" fromJunction="4way_31" toJunction="4way_460"/>
<trip id="275" depart="220.0" fromJunction="3way_609" toJunction="4way_243"/>
<trip id="276" depart="220.8" fromJunction="4way_36" toJunction="4way_558"/>
<trip id="277" depart="221.60000000000002" fromJunction="3way_613" toJunction="4way_440"/>
<trip id="278" depart="222.4" fromJunction="4way_58" toJunction="4way_103"/>
<trip id="279" depart="223.20000000000002" fromJunction="4way_570" toJunction="4way_513"/>
<trip id="280" depart="224.0" fromJunction="3way_250" toJunction="4way_438"/>
<trip id="281" depart="224.8" fromJunction="4way_345" toJunction="4way_298"/>
<trip id="282" depart="225.60000000000002" fromJunction="4way_546" toJunction="4way_360"/>
<trip id="283" depart="226.4" fromJunction="4way_571" toJunction="4way_386"/>
<trip id="284" depart="227.20000000000002" fromJunction="4way_123" toJunction="4way_269"/>
<trip id="285" depart="228.0" fromJunction="3way_23" toJunction="4way_521"/>
<trip id="286" depart="228.8" fromJunction="4way_307" toJunction="4way_426"/>
<trip id="287" depart="229.60000000000002" fromJunction="4way_80" toJunction="4way_447"/>
<trip id="288" depart="230.4" fromJunction="4way_570" toJunction="4way_201"/>
<trip id="289" depart="231.20000000000002" fromJunction="4way_321" toJunction="4way_59"/>
<trip id="290" depart="232.0" fromJunction="4way_514" toJunction="4way_201"/>
<trip id="291" depart="232.8" fromJunction="3way_622" toJunction="4way_533"/>
<trip id="292" depart="233.60000000000002" fromJunction="4way_403" toJunction="4way_490"/>
<trip id="293" depart="234.4" fromJunction="3way_399" toJunction="3way_74"/>
<trip id="294" depart="235.20000000000002" fromJunction="4way_321" toJunction="3way_399"/>
<trip id="295" depart="236.0" fromJunction="4way_171" toJunction="4way_591"/>
<trip id="296" depart="236.8" fromJunction="4way_186" toJunction="4way_115"/>
<trip id="297" depart="237.60000000000002" fromJunction="4way_573" toJunction="4way_155"/>
<trip id="298" depart="238.4" fromJunction="4way_434" toJunction="4way_456"/>
<trip id="299" depart="239.20000000000002" fromJunction="4way_298" toJunction="4way_132"/>
<trip id="300" depart="240.0" fromJunction="4way_505" toJunction="4way_426"/>
<trip id="301" depart="240.8" fromJunction="3way_449" toJunction="4way_240"/>
<trip id="302" depart="241.60000000000002" fromJunction="4way_534" toJunction="4way_263"/>
<trip id="303" depart="242.4" fromJunction="4way_278" toJunction="4way_404"/>
<trip id="304" depart="243.20000000000002" fromJunction="4way_556" toJunction="4way_535"/>
<trip id="305" depart="244.0" fromJunction="4way_81" toJunction="4way_209"/>
<trip id="306" depart="244.8" fromJunction="3way_250" toJunction="4way_148"/>
<trip id="307" depart="245.60000000000002" fromJunction="4way_181" toJunction="3way_609"/>
<trip id="308" depart="246.4" fromJunction="4way_489" toJunction="4way_587"/>
<trip id="309" depart="247.20000000000002" fromJunction="4way_598" toJunction="4way_432"/>
<trip id="310" depart="248.0" fromJunction="4way_291" toJunction="4way_306"/>
<trip id="311" depart="248.8" fromJunction="4way_568" toJunction="4way_139"/>
<trip id="312" depart="249.60000000000002" fromJunction="4way_46" toJunction="4way_248"/>
<trip id="313" depart="250.4" fromJunction="4way_515" toJunction="4way_392"/>
<trip id="314" depart="251.20000000000002" fromJunction="3way_25" toJunction="4way_56"/>
<trip id="315" depart="252.0" fromJunction="4way_328" toJunction="3way_424"/>
<trip id="316" depart="252.8" fromJunction="4way_86" toJunction="4way_408"/>
<trip id="317" depart="253.60000000000002" fromJunction="4way_547" toJunction="4way_542"/>
<trip id="318" depart="254.4" fromJunction="3way_603" toJunction="3way_500"/>
<trip id="319" depart="255.20000000000002" fromJunction="4way_92" toJunction="4way_562"/>
<trip id="320" depart="256.0" fromJunction="4way_197" toJunction="4way_544"/>
<trip id="321" depart="256.8" fromJunction="4way_482" toJunction="4way_348"/>
<trip id="322" depart="257.6" fromJunction="3way_25" toJunction="4way_182"/>
<trip id="323" depart="258.40000000000003" fromJunction="4way_439" toJunction="4way_315"/>
<trip id="324" depart="259.2" fromJunction="3way_609" toJunction="4way_195"/>
<trip id="325" depart="260.0" fromJunction="4way_412" toJunction="4way_285"/>
<trip id="326" depart="260.8" fromJunction="4way_326" toJunction="4way_328"/>
<trip id="327" depart="261.6" fromJunction="3way_374" toJunction="4way_145"/>
<trip id="328" depart="262.40000000000003" fromJunction="3way_525" toJunction="4way_434"/>
<trip id="329" depart="263.2" fromJunction="4way_298" toJunction="4way_209"/>
<trip id="330" depart="264.0" fromJunction="4way_120" toJunction="4way_283"/>
<trip id="331" depart="264.8" fromJunction="4way_204" toJunction="3way_500"/>
<trip id="332" depart="265.6" fromJunction="4way_482" toJunction="4way_532"/>
<trip id="333" depart="266.40000000000003" fromJunction="4way_206" toJunction="4way_90"/>
<trip id="334" depart="267.2" fromJunction="4way_164" toJunction="4way_191"/>
<trip id="335" depart="268.0" fromJunction="4way_408" toJunction="4way_457"/>
<trip id="336" depart="268.8" fromJunction="3way_549" toJunction="4way_363"/>
<trip id="337" depart="269.6" fromJunction="4way_389" toJunction="4way_144"/>
<trip id="338" depart="270.40000000000003" fromJunction="4way_311" toJunction="4way_391"/>
<trip id="339" depart="271.2" fromJunction="4way_557" toJunction="3way_601"/>
<trip id="340" depart="272.0" fromJunction="4way_405" toJunction="4way_557"/>
<trip id="341" depart="272.8" fromJunction="4way_541" toJunction="3way_19"/>
<trip id="342" depart="273.6" fromJunction="4way_238" toJunction="3way_601"/>
<trip id="343" depart="274.40000000000003" fromJunction="4way_114" toJunction="4way_590"/>
<trip id="344" depart="275.2" fromJunction="3way_605" toJunction="4way_547"/>
<trip id="345" depart="276.0" fromJunction="3way_19" toJunction="4way_270"/>
<trip id="346" depart="276.8" fromJunction="4way_557" toJunction="4way_286"/>
<trip id="347" depart="277.6" fromJunction="4way_506" toJunction="4way_111"/>
<trip id="348" depart="278.40000000000003" fromJunction="3way_12" toJunction="4way_102"/>
<trip id="349" depart="279.2" fromJunction="4way_469" toJunction="4way_585"/>
<trip id="350" depart="280.0" fromJunction="4way_28" toJunction="4way_57"/>
<trip id="351" depart="280.8" fromJunction="3way_617" toJunction="3way_619"/>
<trip id="352" depart="281.6" fromJunction="3way_607" toJunction="4way_577"/>
<trip id="353" depart="282.40000000000003" fromJunction="3way_499" toJunction="4way_104"/>
<trip id="354" depart="283.2" fromJunction="4way_95" toJunction="3way_474"/>
<trip id="355" depart="284.0" fromJunction="4way_87" toJunction="4way_226"/>
<trip id="356" depart="284.8" fromJunction="4way_209" toJunction="4way_542"/>
<trip id="357" depart="285.6" fromJunction="4way_227" toJunction="4way_101"/>
<trip id="358" depart="286.40000000000003" fromJunction="4way_186" toJunction="4way_408"/>
<trip id="359" depart="287.2" fromJunction="4way_93" toJunction="4way_281"/>
<trip id="360" depart="288.0" fromJunction="4way_47" toJunction="4way_192"/>
<trip id="361" depart="288.8" fromJunction="4way_146" toJunction="3way_18"/>
<trip id="362" depart="289.6" fromJunction="4way_445" toJunction="4way_357"/>
<trip id="363" depart="290.40000000000003" fromJunction="4way_423" toJunction="4way_390"/>
<trip id="364" depart="291.2" fromJunction="4way_506" toJunction="4way_317"/>
<trip id="365" depart="292.0" fromJunction="4way_107" toJunction="4way_335"/>