<?xml version="1.0" encoding="UTF-8"?>
<edges xmlns:xsi="http://www.w3.org/2001/XMLSchema-instance" xsi:noNamespaceSchemaLocation="http://sumo.dlr.de/xsd/edges_file.xsd">
    <edge from="3way_1" id="1_3way_1to3way_2" to="3way_2" spreadType="roadCenter" numLanes="1" priority="1"/>
    <edge from="3way_2" id="1_3way_2to3way_1" to="3way_1" spreadType="roadCenter" numLanes="1" priority="1"/>
    <edge from="3way_1" id="2_3way_1to3way_5" to="3way_5" spreadType="roadCenter" numLanes="1" priority="1" shape="100.00,0.00 0.00,0.00 0.00,-100.00"/>
    <edge from="3way_5" id="2_3way_5to3way_1" to="3way_1" spreadType="roadCenter" numLanes="1" priority="1" shape="0.00,-100.00 0.00,0.00 100.00,0.00"/>
    <edge from="3way_1" id="3_3way_1to4way_6" to="4way_6" spreadType="roadCenter" numLanes="1" priority="0"/>
    <edge from="4way_6" id="3_4way_6to3way_1" to="3way_1" spreadType="roadCenter" numLanes="1" priority="0"/>
    <edge from="3way_10" id="4_3way_10to3way_15" to="3way_15" spreadType="roadCenter" numLanes="1" priority="1"/>
    <edge from="3way_15" id="4_3way_15to3way_10" to="3way_10" spreadType="roadCenter" numLanes="1" priority="1"/>
    <edge from="3way_10" id="5_3way_10to3way_5" to="3way_5" spreadType="roadCenter" numLanes="1" priority="1"/>
    <edge from="3way_5" id="5_3way_5to3way_10" to="3way_10" spreadType="roadCenter" numLanes="1" priority="1"/>
    <edge from="3way_10" id="6_3way_10to4way_11" to="4way_11" spreadType="roadCenter" numLanes="1" priority="0"/>
    <edge from="4way_11" id="6_4way_11to3way_10" to="3way_10" spreadType="roadCenter" numLanes="1" priority="0"/>
    <edge from="3way_14" id="7_3way_14to3way_19" to="3way_19" spreadType="roadCenter" numLanes="1" priority="1"/>
    <edge from="3way_19" id="7_3way_19to3way_14" to="3way_14" spreadType="roadCenter" numLanes="1" priority="1"/>
    <edge from="3way_14" id="8_3way_14to3way_9" to="3way_9" spreadType="roadCenter" numLanes="1" priority="1"/>
    <edge from="3way_9" id="8_3way_9to3way_14" to="3way_14" spreadType="roadCenter" numLanes="1" priority="1"/>
    <edge from="3way_14" id="9_3way_14to4way_13" to="4way_13" spreadType="roadCenter" numLanes="1" priority="0"/>
    <edge from="4way_13" id="9_4way_13to3way_14" to="3way_14" spreadType="roadCenter" numLanes="1" priority="0"/>
    <edge from="3way_21" id="10_3way_21to3way_15" to="3way_15" spreadType="roadCenter" numLanes="1" priority="1" shape="100.00,-400.00 0.00,-400.00 0.00,-300.00"/>
    <edge from="3way_15" id="10_3way_15to3way_21" to="3way_21" spreadType="roadCenter" numLanes="1" priority="1" shape="0.00,-300.00 0.00,-400.00 100.00,-400.00"/>
    <edge from="3way_15" id="11_3way_15to4way_16" to="4way_16" spreadType="roadCenter" numLanes="1" priority="0"/>
    <edge from="4way_16" id="11_4way_16to3way_15" to="3way_15" spreadType="roadCenter" numLanes="1" priority="0"/>
    <edge from="3way_19" id="12_3way_19to3way_23" to="3way_23" spreadType="roadCenter" numLanes="1" priority="1" shape="400.00,-300.00 400.00,-400.00 300.00,-400.00"/>
    <edge from="3way_23" id="12_3way_23to3way_19" to="3way_19" spreadType="roadCenter" numLanes="1" priority="1" shape="300.00,-400.00 400.00,-400.00 400.00,-300.00"/>
    <edge from="3way_19" id="13_3way_19to4way_18" to="4way_18" spreadType="roadCenter" numLanes="1" priority="0"/>
    <edge from="4way_18" id="13_4way_18to3way_19" to="3way_19" spreadType="roadCenter" numLanes="1" priority="0"/>
    <edge from="3way_2" id="14_3way_2to3way_3" to="3way_3" spreadType="roadCenter" numLanes="1" priority="1"/>
    <edge from="3way_3" id="14_3way_3to3way_2" to="3way_2" spreadType="roadCenter" numLanes="1" priority="1"/>
    <edge from="3way_2" id="15_3way_2to4way_7" to="4way_7" spreadType="roadCenter" numLanes="1" priority="0"/>
    <edge from="4way_7" id="15_4way_7to3way_2" to="3way_2" spreadType="roadCenter" numLanes="1" priority="0"/>
    <edge from="3way_21" id="16_3way_21to3way_22" to="3way_22" spreadType="roadCenter" numLanes="1" priority="1"/>
    <edge from="3way_22" id="16_3way_22to3way_21" to="3way_21" spreadType="roadCenter" numLanes="1" priority="1"/>
    <edge from="3way_21" id="17_3way_21to4way_16" to="4way_16" spreadType="roadCenter" numLanes="1" priority="0"/>
    <edge from="4way_16" id="17_4way_16to3way_21" to="3way_21" spreadType="roadCenter" numLanes="1" priority="0"/>
    <edge from="3way_22" id="18_3way_22to3way_23" to="3way_23" spreadType="roadCenter" numLanes="1" priority="1"/>
    <edge from="3way_23" id="18_3way_23to3way_22" to="3way_22" spreadType="roadCenter" numLanes="1" priority="1"/>
    <edge from="3way_22" id="19_3way_22to4way_17" to="4way_17" spreadType="roadCenter" numLanes="1" priority="0"/>
    <edge from="4way_17" id="19_4way_17to3way_22" to="3way_22" spreadType="roadCenter" numLanes="1" priority="0"/>
    <edge from="3way_23" id="20_3way_23to4way_18" to="4way_18" spreadType="roadCenter" numLanes="1" priority="0"/>
    <edge from="4way_18" id="20_4way_18to3way_23" to="3way_23" spreadType="roadCenter" numLanes="1" priority="0"/>
    <edge from="3way_3" id="21_3way_3to3way_9" to="3way_9" spreadType="roadCenter" numLanes="1" priority="1" shape="300.00,0.00 400.00,0.00 400.00,-100.00"/>
    <edge from="3way_9" id="21_3way_9to3way_3" to="3way_3" spreadType="roadCenter" numLanes="1" priority="1" shape="400.00,-100.00 400.00,0.00 300.00,0.00"/>
    <edge from="3way_3" id="22_3way_3to4way_8" to="4way_8" spreadType="roadCenter" numLanes="1" priority="0"/>
    <edge from="4way_8" id="22_4way_8to3way_3" to="3way_3" spreadType="roadCenter" numLanes="1" priority="0"/>
    <edge from="3way_5" id="23_3way_5to4way_6" to="4way_6" spreadType="roadCenter" numLanes="1" priority="0"/>
    <edge from="4way_6" id="23_4way_6to3way_5" to="3way_5" spreadType="roadCenter" numLanes="1" priority="0"/>
    <edge from="3way_9" id="24_3way_9to4way_8" to="4way_8" spreadType="roadCenter" numLanes="1" priority="0"/>
    <edge from="4way_8" id="24_4way_8to3way_9" to="3way_9" spreadType="roadCenter" numLanes="1" priority="0"/>
    <edge from="4way_11" id="25_4way_11to4way_12" to="4way_12" spreadType="roadCenter" numLanes="1" priority="1"/>
    <edge from="4way_12" id="25_4way_12to4way_11" to="4way_11" spreadType="roadCenter" numLanes="1" priority="1"/>
    <edge from="4way_11" id="26_4way_11to4way_16" to="4way_16" spreadType="roadCenter" numLanes="1" priority="1"/>
    <edge from="4way_16" id="26_4way_16to4way_11" to="4way_11" spreadType="roadCenter" numLanes="1" priority="1"/>
    <edge from="4way_11" id="27_4way_11to4way_6" to="4way_6" spreadType="roadCenter" numLanes="1" priority="1"/>
    <edge from="4way_6" id="27_4way_6to4way_11" to="4way_11" spreadType="roadCenter" numLanes="1" priority="1"/>
    <edge from="4way_12" id="28_4way_12to4way_13" to="4way_13" spreadType="roadCenter" numLanes="1" priority="1"/>
    <edge from="4way_13" id="28_4way_13to4way_12" to="4way_12" spreadType="roadCenter" numLanes="1" priority="1"/>
    <edge from="4way_12" id="29_4way_12to4way_17" to="4way_17" spreadType="roadCenter" numLanes="1" priority="1"/>
    <edge from="4way_17" id="29_4way_17to4way_12" to="4way_12" spreadType="roadCenter" numLanes="1" priority="1"/>
    <edge from="4way_12" id="30_4way_12to4way_7" to="4way_7" spreadType="roadCenter" numLanes="1" priority="1"/>
    <edge from="4way_7" id="30_4way_7to4way_12" to="4way_12" spreadType="roadCenter" numLanes="1" priority="1"/>
    <edge from="4way_13" id="31_4way_13to4way_18" to="4way_18" spreadType="roadCenter" numLanes="1" priority="1"/>
    <edge from="4way_18" id="31_4way_18to4way_13" to="4way_13" spreadType="roadCenter" numLanes="1" priority="1"/>
    <edge from="4way_13" id="32_4way_13to4way_8" to="4way_8" spreadType="roadCenter" numLanes="1" priority="1"/>
    <edge from="4way_8" id="32_4way_8to4way_13" to="4way_13" spreadType="roadCenter" numLanes="1" priority="1"/>
    <edge from="4way_16" id="33_4way_16to4way_17" to="4way_17" spreadType="roadCenter" numLanes="1" priority="1"/>
    <edge from="4way_17" id="33_4way_17to4way_16" to="4way_16" spreadType="roadCenter" numLanes="1" priority="1"/>
    <edge from="4way_17" id="34_4way_17to4way_18" to="4way_18" spreadType="roadCenter" numLanes="1" priority="1"/>
    <edge from="4way_18" id="34_4way_18to4way_17" to="4way_17" spreadType="roadCenter" numLanes="1" priority="1"/>
    <edge from="4way_6" id="35_4way_6to4way_7" to="4way_7" spreadType="roadCenter" numLanes="1" priority="1"/>
    <edge from="4way_7" id="35_4way_7to4way_6" to="4way_6" spreadType="roadCenter" numLanes="1" priority="1"/>
    <edge from="4way_7" id="36_4way_7to4way_8" to="4way_8" spreadType="roadCenter" numLanes="1" priority="1"/>
    <edge from="4way_8" id="36_4way_8to4way_7" to="4way_7" spreadType="roadCenter" numLanes="1" priority="1"/>
</edges>
