<routes xmlns:xsi="http://www.w3.org/2001/XMLSchema-instance" xsi:noNamespaceSchemaLocation="http://sumo.dlr.de/xsd/routes_file.xsd">
<trip id="0" depart="0.0" fromJunction="4way_7" toJunction="3way_5"/>
<trip id="1" depart="4.0" fromJunction="3way_5" toJunction="4way_6"/>
<trip id="2" depart="8.0" fromJunction="4way_11" toJunction="3way_21"/>
<trip id="3" depart="12.0" fromJunction="4way_8" toJunction="3way_15"/>
<trip id="4" depart="16.0" fromJunction="3way_21" toJunction="4way_18"/>
<trip id="5" depart="20.0" fromJunction="3way_5" toJunction="4way_12"/>
<trip id="6" depart="24.0" fromJunction="4way_13" toJunction="3way_5"/>
<trip id="7" depart="28.0" fromJunction="4way_17" toJunction="3way_1"/>
<trip id="8" depart="32.0" fromJunction="4way_8" toJunction="4way_12"/>
<trip id="9" depart="36.0" fromJunction="4way_12" toJunction="4way_18"/>
<trip id="10" depart="40.0" fromJunction="4way_12" toJunction="3way_15"/>
<trip id="11" depart="44.0" fromJunction="4way_11" toJunction="3way_3"/>
<trip id="12" depart="48.0" fromJunction="4way_13" toJunction="3way_9"/>
<trip id="13" depart="52.0" fromJunction="3way_21" toJunction="3way_10"/>
<trip id="14" depart="56.0" fromJunction="4way_12" toJunction="3way_19"/>
<trip id="15" depart="60.0" fromJunction="3way_5" toJunction="3way_15"/>
<trip id="16" depart="64.0" fromJunction="4way_6" toJunction="3way_1"/>
<trip id="17" depart="68.0" fromJunction="4way_16" toJunction="4way_13"/>
<trip id="18" depart="72.0" fromJunction="3way_15" toJunction="3way_22"/>
<trip id="19" depart="76.0" fromJunction="3way_2" toJunction="4way_16"/>
<trip id="20" depart="80.0" fromJunction="3way_3" toJunction="3way_14"/>
<trip id="21" depart="84.0" fromJunction="3way_22" toJunction="3way_23"/>
<trip id="22" depart="88.0" fromJunction="3way_15" toJunction="3way_5"/>
<trip id="23" depart="92.0" fromJunction="3way_3" toJunction="4way_18"/>
<trip id="24" depart="96.0" fromJunction="3way_9" toJunction="3way_14"/>
<trip id="25" depart="100.0" fromJunction="3way_19" toJunction="4way_11"/>
<trip id="26" depart="104.0" fromJunction="3way_19" toJunction="3way_15"/>
<trip id="27" depart="108.0" fromJunction="3way_3" toJunction="3way_9"/>
<trip id="28" depart="112.0" fromJunction="3way_3" toJunction="4way_11"/>
<trip id="29" depart="116.0" fromJunction="3way_22" toJunction="3way_14"/>
<trip id="30" depart="120.0" fromJunction="3way_3" toJunction="4way_17"/>
<trip id="31" depart="124.0" fromJunction="3way_3" toJunction="4way_17"/>
<trip id="32" depart="128.0" fromJunction="3way_15" toJunction="4way_18"/>
<trip id="33" depart="132.0" fromJunction="4way_6" toJunction="4way_18"/>
<trip id="34" depart="136.0" fromJunction="3way_1" toJunction="4way_7"/>
<trip id="35" depart="140.0" fromJunction="3way_3" toJunction="3way_19"/>
<trip id="36" depart="144.0" fromJunction="3way_3" toJunction="3way_23"/>
<trip id="37" depart="148.0" fromJunction="3way_21" toJunction="3way_23"/>
<trip id="38" depart="152.0" fromJunction="4way_16" toJunction="3way_2"/>
<trip id="39" depart="156.0" fromJunction="3way_19" toJunction="3way_5"/>
<trip id="40" depart="160.0" fromJunction="3way_2" toJunction="3way_10"/>
<trip id="41" depart="164.0" fromJunction="4way_13" toJunction="4way_6"/>
<trip id="42" depart="168.0" fromJunction="4way_16" toJunction="3way_23"/>
<trip id="43" depart="172.0" fromJunction="4way_7" toJunction="3way_3"/>
<trip id="44" depart="176.0" fromJunction="3way_9" toJunction="3way_23"/>
<trip id="45" depart="180.0" fromJunction="3way_1" toJunction="4way_6"/>
<trip id="46" depart="184.0" fromJunction="3way_1" toJunction="4way_17"/>
<trip id="47" depart="188.0" fromJunction="3way_19" toJunction="4way_16"/>
<trip id="48" depart="192.0" fromJunction="4way_18" toJunction="4way_7"/>
<trip id="49" depart="196.0" fromJunction="4way_6" toJunction="3way_19"/>
<trip id="50" depart="200.0" fromJunction="4way_18" toJunction="3way_14"/>
<trip id="51" depart="204.0" fromJunction="4way_17" toJunction="3way_15"/>
<trip id="52" depart="208.0" fromJunction="3way_23" toJunction="4way_16"/>
<trip id="53" depart="212.0" fromJunction="3way_21" toJunction="4way_17"/>
<trip id="54" depart="216.0" fromJunction="4way_6" toJunction="4way_8"/>
<trip id="55" depart="220.0" fromJunction="4way_16" toJunction="4way_8"/>
<trip id="56" depart="224.0" fromJunction="3way_10" toJunction="4way_7"/>
<trip id="57" depart="228.0" fromJunction="4way_11" toJunction="4way_18"/>
<trip id="58" depart="232.0" fromJunction="4way_6" toJunction="3way_21"/>
<trip id="59" depart="236.0" fromJunction="3way_23" toJunction="3way_1"/>
<trip id="60" depart="240.0" fromJunction="3way_23" toJunction="4way_11"/>
<trip id="61" depart="244.0" fromJunction="3way_15" toJunction="4way_6"/>
<trip id="62" depart="248.0" fromJunction="3way_23" toJunction="3way_3"/>
<trip id="63" depart="252.0" fromJunction="4way_6" toJunction="3way_5"/>
<trip id="64" depart="256.0" fromJunction="4way_11" toJunction="4way_6"/>
<trip id="65" depart="260.0" fromJunction="3way_15" toJunction="4way_11"/>
<trip id="66" depart="264.0" fromJunction="3way_22" toJunction="4way_8"/>
<trip id="67" depart="268.0" fromJunction="4way_8" toJunction="3way_15"/>
<trip id="68" depart="272.0" fromJunction="4way_16" toJunction="4way_12"/>
<trip id="69" depart="276.0" fromJunction="4way_13" toJunction="3way_3"/>
<trip id="70" depart="280.0" fromJunction="4way_18" toJunction="4way_16"/>
<trip id="71" depart="284.0" fromJunction="4way_8" toJunction="3way_9"/>
<trip id="72" depart="288.0" fromJunction="4way_6" toJunction="3way_9"/>
<trip id="73" depart="292.0" fromJunction="4way_17" toJunction="3way_3"/>
<trip id="74" depart="296.0" fromJunction="3way_5" toJunction="4way_12"/>
<trip id="75" depart="300.0" fromJunction="3way_2" toJunction="3way_21"/>
<trip id="76" depart="304.0" fromJunction="3way_15" toJunction="4way_16"/>
<trip id="77" depart="308.0" fromJunction="4way_8" toJunction="4way_7"/>
<trip id="78" depart="312.0" fromJunction="4way_17" toJunction="4way_18"/>
<trip id="79" depart="316.0" fromJunction="3way_22" toJunction="3way_1"/>
<trip id="80" depart="320.0" fromJunction="3way_9" toJunction="4way_7"/>
<trip id="81" depart="324.0" fromJunction="3way_2" toJunction="3way_10"/>
<trip id="82" depart="328.0" fromJunction="3way_1" toJunction="3way_14"/>
<trip id="83" depart="332.0" fromJunction="3way_14" toJunction="4way_12"/>
<trip id="84" depart="336.0" fromJunction="4way_13" toJunction="3way_22"/>
<trip id="85" depart="340.0" fromJunction="3way_1" toJunction="4way_16"/>
<trip id="86" depart="344.0" fromJunction="4way_11" toJunction="3way_9"/>
<trip id="87" depart="348.0" fromJunction="3way_14" toJunction="4way_6"/>
<trip id="88" depart="352.0" fromJunction="4way_6" toJunction="4way_13"/>
<trip id="89" depart="356.0" fromJunction="4way_6" toJunction="3way_5"/>
<trip id="90" depart="360.0" fromJunction="3way_23" toJunction="4way_7"/>
<trip id="91" depart="364.0" fromJunction="3way_14" toJunction="3way_21"/>
<trip id="92" depart="368.0" fromJunction="4way_13" toJunction="3way_9"/>
<trip id="93" depart="372.0" fromJunction="3way_10" toJunction="4way_7"/>
<trip id="94" depart="376.0" fromJunction="3way_19" toJunction="3way_14"/>
<trip id="95" depart="380.0" fromJunction="3way_15" toJunction="3way_2"/>
<trip id="96" depart="384.0" fromJunction="4way_16" toJunction="3way_23"/>
<trip id="97" depart="388.0" fromJunction="3way_9" toJunction="3way_22"/>
<trip id="98" depart="392.0" fromJunction="3way_2" toJunction="3way_1"/>
<trip id="99" depart="396.0" fromJunction="3way_15" toJunction="4way_16"/>
<trip id="100" depart="400.0" fromJunction="4way_8" toJunction="3way_5"/>
<trip id="101" depart="404.0" fromJunction="3way_14" toJunction="4way_18"/>
<trip id="102" depart="408.0" fromJunction="3way_19" toJunction="4way_11"/>
<trip id="103" depart="412.0" fromJunction="4way_7" toJunction="3way_1"/>
<trip id="104" depart="416.0" fromJunction="3way_21" toJunction="3way_23"/>
<trip id="105" depart="420.0" fromJunction="4way_17" toJunction="4way_6"/>
<trip id="106" depart="424.0" fromJunction="4way_8" toJunction="4way_11"/>
<trip id="107" depart="428.0" fromJunction="4way_12" toJunction="3way_19"/>
<trip id="108" depart="432.0" fromJunction="4way_18" toJunction="3way_9"/>
<trip id="109" depart="436.0" fromJunction="3way_14" toJunction="4way_16"/>
<trip id="110" depart="440.0" fromJunction="4way_7" toJunction="4way_13"/>
<trip id="111" depart="444.0" fromJunction="3way_14" toJunction="3way_19"/>
<trip id="112" depart="448.0" fromJunction="3way_1" toJunction="3way_10"/>
<trip id="113" depart="452.0" fromJunction="3way_21" toJunction="3way_14"/>
<trip id="114" depart="456.0" fromJunction="3way_15" toJunction="3way_22"/>
<trip id="115" depart="460.0" fromJunction="4way_6" toJunction="3way_19"/>
<trip id="116" depart="464.0" fromJunction="3way_3" toJunction="4way_8"/>
<trip id="117" depart="468.0" fromJunction="3way_3" toJunction="3way_10"/>
<trip id="118" depart="472.0" fromJunction="3way_21" toJunction="4way_7"/>
<trip id="119" depart="476.0" fromJunction="3way_9" toJunction="3way_5"/>
<trip id="120" depart="480.0" fromJunction="3way_10" toJunction="3way_9"/>
<trip id="121" depart="484.0" fromJunction="4way_13" toJunction="3way_22"/>
<trip id="122" depart="488.0" fromJunction="4way_7" toJunction="4way_12"/>
<trip id="123" depart="492.0" fromJunction="3way_2" toJunction="4way_8"/>
<trip id="124" depart="496.0" fromJunction="4way_6" toJunction="3way_5"/>
<trip id="125" depart="500.0" fromJunction="3way_23" toJunction="4way_18"/>
<trip id="126" depart="504.0" fromJunction="3way_3" toJunction="3way_19"/>
<trip id="127" depart="508.0" fromJunction="4way_13" toJunction="3way_1"/>
<trip id="128" depart="512.0" fromJunction="4way_12" toJunction="4way_16"/>
<trip id="129" depart="516.0" fromJunction="4way_6" toJunction="3way_19"/>
<trip id="130" depart="520.0" fromJunction="3way_10" toJunction="3way_2"/>
<trip id="131" depart="524.0" fromJunction="4way_8" toJunction="4way_18"/>
<trip id="132" depart="528.0" fromJunction="4way_18" toJunction="3way_22"/>
<trip id="133" depart="532.0" fromJunction="4way_13" toJunction="3way_14"/>
<trip id="134" depart="536.0" fromJunction="4way_12" toJunction="4way_13"/>
<trip id="135" depart="540.0" fromJunction="4way_8" toJunction="4way_11"/>
<trip id="136" depart="544.0" fromJunction="4way_17" toJunction="3way_23"/>
<trip id="137" depart="548.0" fromJunction="3way_1" toJunction="4way_6"/>
<trip id="138" depart="552.0" fromJunction="3way_9" toJunction="3way_22"/>
<trip id="139" depart="556.0" fromJunction="3way_10" toJunction="4way_18"/>
<trip id="140" depart="560.0" fromJunction="4way_11" toJunction="3way_10"/>
<trip id="141" depart="564.0" fromJunction="3way_3" toJunction="3way_22"/>
<trip id="142" depart="568.0" fromJunction="3way_9" toJunction="4way_17"/>
<trip id="143" depart="572.0" fromJunction="3way_14" toJunction="3way_10"/>
<trip id="144" depart="576.0" fromJunction="4way_8" toJunction="3way_3"/>
<trip id="145" depart="580.0" fromJunction="4way_12" toJunction="4way_13"/>
<trip id="146" depart="584.0" fromJunction="3way_2" toJunction="3way_23"/>
<trip id="147" depart="588.0" fromJunction="3way_14" toJunction="3way_21"/>
<trip id="148" depart="592.0" fromJunction="3way_2" toJunction="3way_3"/>
<trip id="149" depart="596.0" fromJunction="3way_1" toJunction="4way_7"/>
<trip id="150" depart="600.0" fromJunction="3way_9" toJunction="4way_12"/>
<trip id="151" depart="604.0" fromJunction="3way_19" toJunction="4way_16"/>
<trip id="152" depart="608.0" fromJunction="3way_5" toJunction="3way_21"/>
<trip id="153" depart="612.0" fromJunction="4way_7" toJunction="4way_8"/>
<trip id="154" depart="616.0" fromJunction="3way_3" toJunction="3way_19"/>
<trip id="155" depart="620.0" fromJunction="3way_23" toJunction="3way_2"/>
<trip id="156" depart="624.0" fromJunction="3way_15" toJunction="3way_19"/>
<trip id="157" depart="628.0" fromJunction="3way_22" toJunction="3way_19"/>
<trip id="158" depart="632.0" fromJunction="4way_12" toJunction="3way_9"/>
<trip id="159" depart="636.0" fromJunction="4way_16" toJunction="3way_2"/>
<trip id="160" depart="640.0" fromJunction="3way_22" toJunction="3way_19"/>
<trip id="161" depart="644.0" fromJunction="3way_19" toJunction="4way_6"/>
<trip id="162" depart="648.0" fromJunction="3way_14" toJunction="3way_22"/>
<trip id="163" depart="652.0" fromJunction="3way_1" toJunction="3way_15"/>
<trip id="164" depart="656.0" fromJunction="3way_2" toJunction="4way_12"/>
<trip id="165" depart="660.0" fromJunction="3way_23" toJunction="3way_10"/>
<trip id="166" depart="664.0" fromJunction="4way_18" toJunction="4way_6"/>
<trip id="167" depart="668.0" fromJunction="3way_1" toJunction="4way_11"/>
<trip id="168" depart="672.0" fromJunction="3way_10" toJunction="3way_15"/>
<trip id="169" depart="676.0" fromJunction="4way_16" toJunction="3way_5"/>
<trip id="170" depart="680.0" fromJunction="3way_3" toJunction="3way_19"/>
<trip id="171" depart="684.0" fromJunction="4way_18" toJunction="3way_21"/>
<trip id="172" depart="688.0" fromJunction="4way_8" toJunction="3way_9"/>
<trip id="173" depart="692.0" fromJunction="3way_15" toJunction="3way_5"/>
<trip id="174" depart="696.0" fromJunction="3way_15" toJunction="4way_8"/>
<trip id="175" depart="700.0" fromJunction="3way_21" toJunction="4way_7"/>
<trip id="176" depart="704.0" fromJunction="4way_16" toJunction="4way_8"/>
<trip id="177" depart="708.0" fromJunction="3way_23" toJunction="4way_16"/>
<trip id="178" depart="712.0" fromJunction="4way_11" toJunction="4way_7"/>
<trip id="179" depart="716.0" fromJunction="3way_9" toJunction="3way_19"/>
<trip id="180" depart="720.0" fromJunction="4way_18" toJunction="4way_12"/>
<trip id="181" depart="724.0" fromJunction="4way_6" toJunction="3way_15"/>
<trip id="182" depart="728.0" fromJunction="3way_15" toJunction="4way_8"/>
<trip id="183" depart="732.0" fromJunction="4way_6" toJunction="4way_13"/>
<trip id="184" depart="736.0" fromJunction="4way_13" toJunction="4way_17"/>
<trip id="185" depart="740.0" fromJunction="3way_9" toJunction="4way_17"/>
<trip id="186" depart="744.0" fromJunction="3way_21" toJunction="4way_11"/>
<trip id="187" depart="748.0" fromJunction="3way_21" toJunction="3way_2"/>
<trip id="188" depart="752.0" fromJunction="4way_17" toJunction="3way_19"/>
<trip id="189" depart="756.0" fromJunction="4way_18" toJunction="3way_1"/>
<trip id="190" depart="760.0" fromJunction="3way_9" toJunction="3way_1"/>
<trip id="191" depart="764.0" fromJunction="4way_13" toJunction="3way_21"/>
<trip id="192" depart="768.0" fromJunction="4way_13" toJunction="3way_3"/>
<trip id="193" depart="772.0" fromJunction="3way_15" toJunction="4way_8"/>
<trip id="194" depart="776.0" fromJunction="3way_14" toJunction="3way_23"/>
<trip id="195" depart="780.0" fromJunction="3way_1" toJunction="4way_6"/>
<trip id="196" depart="784.0" fromJunction="3way_15" toJunction="3way_1"/>
<trip id="197" depart="788.0" fromJunction="3way_19" toJunction="3way_2"/>
<trip id="198" depart="792.0" fromJunction="3way_19" toJunction="3way_14"/>
<trip id="199" depart="796.0" fromJunction="3way_1" toJunction="3way_3"/>
<trip id="200" depart="800.0" fromJunction="4way_6" toJunction="3way_3"/>
<trip id="201" depart="804.0" fromJunction="3way_9" toJunction="3way_21"/>
<trip id="202" depart="808.0" fromJunction="3way_10" toJunction="4way_11"/>
<trip id="203" depart="812.0" fromJunction="3way_2" toJunction="4way_18"/>
<trip id="204" depart="816.0" fromJunction="3way_23" toJunction="4way_12"/>
<trip id="205" depart="820.0" fromJunction="4way_11" toJunction="3way_19"/>
<trip id="206" depart="824.0" fromJunction="4way_11" toJunction="3way_19"/>
<trip id="207" depart="828.0" fromJunction="3way_21" toJunction="3way_10"/>
<trip id="208" depart="832.0" fromJunction="3way_23" toJunction="3way_5"/>
<trip id="209" depart="836.0" fromJunction="3way_21" toJunction="4way_16"/>
<trip id="210" depart="840.0" fromJunction="4way_17" toJunction="3way_22"/>
<trip id="211" depart="844.0" fromJunction="3way_1" toJunction="4way_13"/>
<trip id="212" depart="848.0" fromJunction="3way_22" toJunction="3way_14"/>
<trip id="213" depart="852.0" fromJunction="4way_18" toJunction="4way_17"/>
<trip id="214" depart="856.0" fromJunction="4way_13" toJunction="4way_18"/>
<trip id="215" depart="860.0" fromJunction="4way_18" toJunction="3way_23"/>
<trip id="216" depart="864.0" fromJunction="3way_3" toJunction="3way_19"/>
<trip id="217" depart="868.0" fromJunction="3way_14" toJunction="4way_13"/>
<trip id="218" depart="872.0" fromJunction="3way_2" toJunction="4way_16"/>
<trip id="219" depart="876.0" fromJunction="4way_8" toJunction="4way_7"/>
<trip id="220" depart="880.0" fromJunction="3way_22" toJunction="3way_19"/>
<trip id="221" depart="884.0" fromJunction="4way_7" toJunction="3way_22"/>
<trip id="222" depart="888.0" fromJunction="3way_9" toJunction="3way_14"/>
<trip id="223" depart="892.0" fromJunction="3way_23" toJunction="3way_15"/>
<trip id="224" depart="896.0" fromJunction="3way_14" toJunction="4way_17"/>
<trip id="225" depart="900.0" fromJunction="4way_13" toJunction="3way_10"/>
<trip id="226" depart="904.0" fromJunction="4way_8" toJunction="4way_11"/>
<trip id="227" depart="908.0" fromJunction="4way_7" toJunction="4way_13"/>
<trip id="228" depart="912.0" fromJunction="4way_18" toJunction="4way_16"/>
<trip id="229" depart="916.0" fromJunction="3way_15" toJunction="4way_18"/>
<trip id="230" depart="920.0" fromJunction="3way_23" toJunction="3way_2"/>
<trip id="231" depart="924.0" fromJunction="3way_21" toJunction="3way_9"/>
<trip id="232" depart="928.0" fromJunction="4way_6" toJunction="3way_3"/>
<trip id="233" depart="932.0" fromJunction="4way_8" toJunction="3way_21"/>
<trip id="234" depart="936.0" fromJunction="3way_5" toJunction="4way_18"/>
<trip id="235" depart="940.0" fromJunction="4way_6" toJunction="3way_19"/>
<trip id="236" depart="944.0" fromJunction="3way_21" toJunction="4way_8"/>
<trip id="237" depart="948.0" fromJunction="3way_19" toJunction="3way_5"/>
<trip id="238" depart="952.0" fromJunction="3way_21" toJunction="3way_15"/>
<trip id="239" depart="956.0" fromJunction="3way_10" toJunction="3way_19"/>
<trip id="240" depart="960.0" fromJunction="3way_22" toJunction="3way_23"/>
<trip id="241" depart="964.0" fromJunction="4way_7" toJunction="3way_5"/>
<trip id="242" depart="968.0" fromJunction="4way_13" toJunction="3way_22"/>
<trip id="243" depart="972.0" fromJunction="3way_2" toJunction="4way_8"/>
<trip id="244" depart="976.0" fromJunction="3way_15" toJunction="3way_19"/>
<trip id="245" depart="980.0" fromJunction="3way_22" toJunction="3way_3"/>
<trip id="246" depart="984.0" fromJunction="4way_16" toJunction="4way_7"/>
<trip id="247" depart="988.0" fromJunction="4way_16" toJunction="4way_11"/>
<trip id="248" depart="992.0" fromJunction="3way_22" toJunction="3way_14"/>
<trip id="249" depart="996.0" fromJunction="4way_8" toJunction="4way_16"/>
<trip id="250" depart="1000.0" fromJunction="3way_19" toJunction="3way_5"/>
<trip id="251" depart="1004.0" fromJunction="4way_16" toJunction="3way_1"/>
<trip id="252" depart="1008.0" fromJunction="3way_22" toJunction="3way_1"/>
<trip id="253" depart="1012.0" fromJunction="4way_13" toJunction="3way_5"/>
<trip id="254" depart="1016.0" fromJunction="3way_21" toJunction="3way_2"/>
<trip id="255" depart="1020.0" fromJunction="3way_22" toJunction="3way_1"/>
<trip id="256" depart="1024.0" fromJunction="3way_19" toJunction="4way_11"/>
<trip id="257" depart="1028.0" fromJunction="3way_3" toJunction="3way_14"/>
<trip id="258" depart="1032.0" fromJunction="4way_16" toJunction="4way_6"/>
<trip id="259" depart="1036.0" fromJunction="4way_13" toJunction="4way_16"/>
<trip id="260" depart="1040.0" fromJunction="4way_11" toJunction="3way_1"/>
<trip id="261" depart="1044.0" fromJunction="3way_1" toJunction="4way_18"/>
<trip id="262" depart="1048.0" fromJunction="4way_17" toJunction="4way_16"/>
<trip id="263" depart="1052.0" fromJunction="3way_22" toJunction="3way_10"/>
<trip id="264" depart="1056.0" fromJunction="3way_3" toJunction="4way_12"/>
<trip id="265" depart="1060.0" fromJunction="3way_10" toJunction="3way_15"/>
<trip id="266" depart="1064.0" fromJunction="3way_2" toJunction="4way_16"/>
<trip id="267" depart="1068.0" fromJunction="3way_21" toJunction="3way_14"/>
<trip id="268" depart="1072.0" fromJunction="4way_8" toJunction="4way_11"/>
<trip id="269" depart="1076.0" fromJunction="3way_3" toJunction="4way_6"/>
<trip id="270" depart="1080.0" fromJunction="4way_8" toJunction="4way_18"/>
<trip id="271" depart="1084.0" fromJunction="4way_13" toJunction="3way_10"/>
<trip id="272" depart="1088.0" fromJunction="4way_13" toJunction="3way_5"/>
<trip id="273" depart="1092.0" fromJunction="4way_18" toJunction="4way_17"/>
<trip id="274" depart="1096.0" fromJunction="3way_1" toJunction="4way_13"/>
<trip id="275" depart="1100.0" fromJunction="3way_21" toJunction="3way_9"/>
<trip id="276" depart="1104.0" fromJunction="3way_23" toJunction="4way_13"/>
<trip id="277" depart="1108.0" fromJunction="4way_8" toJunction="3way_9"/>
<trip id="278" depart="1112.0" fromJunction="4way_13" toJunction="3way_15"/>
<trip id="279" depart="1116.0" fromJunction="4way_11" toJunction="3way_9"/>
<trip id="280" depart="1120.0" fromJunction="3way_2" toJunction="3way_15"/>
<trip id="281" depart="1124.0" fromJunction="3way_19" toJunction="4way_16"/>
<trip id="282" depart="1128.0" fromJunction="3way_2" toJunction="3way_1"/>
<trip id="283" depart="1132.0" fromJunction="4way_13" toJunction="3way_2"/>
<trip id="284" depart="1136.0" fromJunction="4way_8" toJunction="4way_7"/>
<trip id="285" depart="1140.0" fromJunction="3way_5" toJunction="4way_16"/>
<trip id="286" depart="1144.0" fromJunction="4way_18" toJunction="3way_23"/>
<trip id="287" depart="1148.0" fromJunction="3way_15" toJunction="3way_22"/>
<trip id="288" depart="1152.0" fromJunction="4way_18" toJunction="3way_22"/>
<trip id="289" depart="1156.0" fromJunction="3way_23" toJunction="3way_9"/>
<trip id="290" depart="1160.0" fromJunction="3way_2" toJunction="4way_16"/>
<trip id="291" depart="1164.0" fromJunction="3way_10" toJunction="4way_6"/>
<trip id="292" depart="1168.0" fromJunction="3way_22" toJunction="3way_10"/>
<trip id="293" depart="1172.0" fromJunction="3way_22" toJunction="3way_15"/>
<trip id="294" depart="1176.0" fromJunction="3way_3" toJunction="4way_18"/>
<trip id="295" depart="1180.0" fromJunction="3way_22" toJunction="3way_3"/>
<trip id="296" depart="1184.0" fromJunction="4way_11" toJunction="4way_6"/>
<trip id="297" depart="1188.0" fromJunction="4way_18" toJunction="3way_21"/>
<trip id="298" depart="1192.0" fromJunction="4way_7" toJunction="3way_22"/>
<trip id="299" depart="1196.0" fromJunction="4way_17" toJunction="4way_11"/>
<trip id="300" depart="1200.0" fromJunction="4way_8" toJunction="4way_18"/>
<trip id="301" depart="1204.0" fromJunction="4way_16" toJunction="4way_12"/>
<trip id="302" depart="1208.0" fromJunction="3way_9" toJunction="3way_22"/>
<trip id="303" depart="1212.0" fromJunction="3way_19" toJunction="3way_2"/>
<trip id="304" depart="1216.0" fromJunction="3way_10" toJunction="3way_15"/>
<trip id="305" depart="1220.0" fromJunction="4way_18" toJunction="4way_12"/>
<trip id="306" depart="1224.0" fromJunction="4way_7" toJunction="4way_6"/>
<trip id="307" depart="1228.0" fromJunction="4way_13" toJunction="4way_17"/>
<trip id="308" depart="1232.0" fromJunction="3way_21" toJunction="4way_18"/>
<trip id="309" depart="1236.0" fromJunction="3way_9" toJunction="3way_22"/>
<trip id="310" depart="1240.0" fromJunction="4way_11" toJunction="4way_16"/>
<trip id="311" depart="1244.0" fromJunction="3way_3" toJunction="4way_8"/>
<trip id="312" depart="1248.0" fromJunction="4way_6" toJunction="3way_10"/>
<trip id="313" depart="1252.0" fromJunction="3way_9" toJunction="3way_19"/>
<trip id="314" depart="1256.0" fromJunction="3way_2" toJunction="4way_8"/>
<trip id="315" depart="1260.0" fromJunction="3way_3" toJunction="3way_15"/>
<trip id="316" depart="1264.0" fromJunction="4way_18" toJunction="3way_15"/>
<trip id="317" depart="1268.0" fromJunction="4way_17" toJunction="3way_21"/>
<trip id="318" depart="1272.0" fromJunction="3way_19" toJunction="3way_3"/>
<trip id="319" depart="1276.0" fromJunction="3way_22" toJunction="4way_16"/>
<trip id="320" depart="1280.0" fromJunction="4way_11" toJunction="4way_16"/>
<trip id="321" depart="1284.0" fromJunction="3way_15" toJunction="3way_21"/>
<trip id="322" depart="1288.0" fromJunction="3way_2" toJunction="4way_6"/>
<trip id="323" depart="1292.0" fromJunction="4way_11" toJunction="4way_17"/>
<trip id="324" depart="1296.0" fromJunction="3way_5" toJunction="4way_7"/>
<trip id="325" depart="1300.0" fromJunction="3way_21" toJunction="3way_3"/>
<trip id="326" depart="1304.0" fromJunction="3way_23" toJunction="3way_21"/>
<trip id="327" depart="1308.0" fromJunction="4way_7" toJunction="3way_1"/>
<trip id="328" depart="1312.0" fromJunction="4way_6" toJunction="3way_3"/>
<trip id="329" depart="1316.0" fromJunction="4way_11" toJunction="4way_16"/>
<trip id="330" depart="1320.0" fromJunction="3way_3" toJunction="4way_18"/>
<trip id="331" depart="1324.0" fromJunction="3way_1" toJunction="4way_8"/>
<trip id="332" depart="1328.0" fromJunction="3way_21" toJunction="3way_5"/>
<trip id="333" depart="1332.0" fromJunction="3way_22" toJunction="3way_5"/>
<trip id="334" depart="1336.0" fromJunction="3way_1" toJunction="3way_14"/>
<trip id="335" depart="1340.0" fromJunction="4way_17" toJunction="3way_10"/>
<trip id="336" depart="1344.0" fromJunction="3way_14" toJunction="3way_22"/>
<trip id="337" depart="1348.0" fromJunction="3way_3" toJunction="3way_14"/>
<trip id="338" depart="1352.0" fromJunction="3way_2" toJunction="3way_19"/>
<trip id="339" depart="1356.0" fromJunction="4way_17" toJunction="3way_2"/>
<trip id="340" depart="1360.0" fromJunction="3way_5" toJunction="3way_9"/>
<trip id="341" depart="1364.0" fromJunction="3way_15" toJunction="4way_12"/>
<trip id="342" depart="1368.0" fromJunction="3way_14" toJunction="3way_9"/>
<trip id="343" depart="1372.0" fromJunction="3way_5" toJunction="3way_15"/>
<trip id="344" depart="1376.0" fromJunction="4way_12" toJunction="3way_22"/>
<trip id="345" depart="1380.0" fromJunction="4way_13" toJunction="4way_7"/>
<trip id="346" depart="1384.0" fromJunction="4way_8" toJunction="3way_1"/>
<trip id="347" depart="1388.0" fromJunction="4way_8" toJunction="3way_21"/>
<trip id="348" depart="1392.0" fromJunction="4way_18" toJunction="4way_16"/>
<trip id="349" depart="1396.0" fromJunction="3way_22" toJunction="4way_7"/>
<trip id="350" depart="1400.0" fromJunction="3way_22" toJunction="3way_10"/>
<trip id="351" depart="1404.0" fromJunction="3way_19" toJunction="3way_22"/>
<trip id="352" depart="1408.0" fromJunction="4way_16" toJunction="3way_10"/>
<trip id="353" depart="1412.0" fromJunction="3way_5" toJunction="3way_19"/>
<trip id="354" depart="1416.0" fromJunction="3way_9" toJunction="3way_3"/>
<trip id="355" depart="1420.0" fromJunction="4way_18" toJunction="3way_1"/>
<trip id="356" depart="1424.0" fromJunction="3way_9" toJunction="3way_1"/>
<trip id="357" depart="1428.0" fromJunction="3way_2" toJunction="4way_6"/>
<trip id="358" depart="1432.0" fromJunction="4way_7" toJunction="4way_8"/>
<trip id="359" depart="1436.0" fromJunction="3way_10" toJunction="4way_18"/>
<trip id="360" depart="1440.0" fromJunction="3way_5" toJunction="3way_23"/>
<trip id="361" depart="1444.0" fromJunction="3way_10" toJunction="4way_13"/>
<trip id="362" depart="1448.0" fromJunction="4way_8" toJunction="3way_19"/>
<trip id="363" depart="1452.0" fromJunction="3way_1" toJunction="3way_22"/>
<trip id="364" depart="1456.0" fromJunction="3way_23" toJunction="3way_19"/>
<trip id="365" depart="1460.0" fromJunction="3way_15" toJunction="4way_8"/>
<trip id="366" depart="1464.0" fromJunction="3way_22" toJunction="3way_15"/>
<trip id="367" depart="1468.0" fromJunction="4way_13" toJunction="4way_8"/>
<trip id="368" depart="1472.0" fromJunction="3way_22" toJunction="4way_18"/>
<trip id="369" depart="1476.0" fromJunction="4way_12" toJunction="4way_18"/>
<trip id="370" depart="1480.0" fromJunction="3way_19" toJunction="4way_16"/>
<trip id="371" depart="1484.0" fromJunction="3way_9" toJunction="3way_14"/>
<trip id="372" depart="1488.0" fromJunction="3way_23" toJunction="4way_13"/>
<trip id="373" depart="1492.0" fromJunction="3way_10" toJunction="3way_15"/>
<trip id="374" depart="1496.0" fromJunction="4way_17" toJunction="4way_12"/>
<trip id="375" depart="1500.0" fromJunction="3way_21" toJunction="3way_3"/>
<trip id="376" depart="1504.0" fromJunction="3way_9" toJunction="3way_3"/>
<trip id="377" depart="1508.0" fromJunction="3way_2" toJunction="3way_23"/>
<trip id="378" depart="1512.0" fromJunction="3way_3" toJunction="3way_21"/>
<trip id="379" depart="1516.0" fromJunction="3way_19" toJunction="3way_5"/>
<trip id="380" depart="1520.0" fromJunction="3way_3" toJunction="4way_6"/>
<trip id="381" depart="1524.0" fromJunction="4way_13" toJunction="4way_18"/>
<trip id="382" depart="1528.0" fromJunction="3way_19" toJunction="3way_21"/>
<trip id="383" depart="1532.0" fromJunction="3way_10" toJunction="3way_19"/>
<trip id="384" depart="1536.0" fromJunction="4way_11" toJunction="3way_1"/>
<trip id="385" depart="1540.0" fromJunction="3way_22" toJunction="3way_21"/>
<trip id="386" depart="1544.0" fromJunction="4way_16" toJunction="4way_12"/>
<trip id="387" depart="1548.0" fromJunction="3way_22" toJunction="4way_18"/>
<trip id="388" depart="1552.0" fromJunction="4way_12" toJunction="4way_8"/>
<trip id="389" depart="1556.0" fromJunction="4way_11" toJunction="3way_22"/>
<trip id="390" depart="1560.0" fromJunction="4way_8" toJunction="3way_23"/>
<trip id="391" depart="1564.0" fromJunction="3way_14" toJunction="3way_3"/>
<trip id="392" depart="1568.0" fromJunction="3way_21" toJunction="3way_9"/>
<trip id="393" depart="1572.0" fromJunction="3way_5" toJunction="4way_7"/>
<trip id="394" depart="1576.0" fromJunction="3way_1" toJunction="3way_10"/>
<trip id="395" depart="1580.0" fromJunction="3way_2" toJunction="3way_21"/>