<?xml version="1.0" encoding="UTF-8"?>

<!-- generated on 2023-07-27 02:53:53 by Eclipse SUMO duarouter Version 1.12.0
<configuration xmlns:xsi="http://www.w3.org/2001/XMLSchema-instance" xsi:noNamespaceSchemaLocation="http://sumo.dlr.de/xsd/duarouterConfiguration.xsd">

    <input>
        <net-file value="sq.net.xml"/>
        <route-files value="sq.trips.xml"/>
        <junction-taz value="true"/>
    </input>

    <output>
        <output-file value="sq.rou.xml"/>
        <alternatives-output value="sq.rou.alt.xml"/>
    </output>

    <processing>
        <weights.random-factor value="1.2"/>
    </processing>

    <time>
        <begin value="0"/>
        <end value="7200"/>
    </time>

    <report>
        <verbose value="true"/>
    </report>

    <random_number>
        <seed value="5"/>
    </random_number>

</configuration>
-->

<routes xmlns:xsi="http://www.w3.org/2001/XMLSchema-instance" xsi:noNamespaceSchemaLocation="http://sumo.dlr.de/xsd/routes_file.xsd">
    <vehicle id="0" depart="0.00">
        <route edges="39_4way_20to4way_14 35_4way_14to4way_13"/>
    </vehicle>
    <vehicle id="1" depart="1.11">
        <route edges="36_4way_13to4way_19 46_4way_19to4way_25"/>
    </vehicle>
    <vehicle id="2" depart="2.22">
        <route edges="55_4way_8to4way_7 32_4way_7to3way_6 8_3way_6to3way_12 7_3way_12to3way_18"/>
    </vehicle>
    <vehicle id="3" depart="3.33">
        <route edges="34_4way_10to4way_9 56_4way_9to4way_8 55_4way_8to4way_7 32_4way_7to3way_6 8_3way_6to3way_12"/>
    </vehicle>
    <vehicle id="4" depart="4.44">
        <route edges="19_3way_24to4way_25 52_4way_25to4way_26 53_4way_26to4way_27 54_4way_27to4way_28 51_4way_28to4way_22"/>
    </vehicle>
    <vehicle id="5" depart="5.56">
        <route edges="37_4way_7to4way_13 35_4way_13to4way_14 38_4way_14to4way_15"/>
    </vehicle>
    <vehicle id="6" depart="6.67">
        <route edges="41_4way_16to4way_15 38_4way_15to4way_14 35_4way_14to4way_13 36_4way_13to4way_19"/>
    </vehicle>
    <vehicle id="7" depart="7.78">
        <route edges="42_4way_21to4way_15 43_4way_15to4way_9 23_4way_9to3way_3 14_3way_3to3way_2 1_3way_2to3way_1"/>
    </vehicle>
    <vehicle id="8" depart="8.89">
        <route edges="50_4way_27to4way_21 42_4way_21to4way_15 43_4way_15to4way_9"/>
    </vehicle>
    <vehicle id="9" depart="10.00">
        <route edges="42_4way_15to4way_21 50_4way_21to4way_27 54_4way_27to4way_28"/>
    </vehicle>
    <vehicle id="10" depart="11.11">
        <route edges="56_4way_9to4way_8 55_4way_8to4way_7 32_4way_7to3way_6 8_3way_6to3way_12"/>
    </vehicle>
    <vehicle id="11" depart="12.22">
        <route edges="56_4way_8to4way_9 34_4way_9to4way_10 31_4way_10to3way_4"/>
    </vehicle>
    <vehicle id="12" depart="13.33">
        <route edges="17_4way_22to3way_23 10_3way_23to3way_17 4_3way_17to3way_11"/>
    </vehicle>
    <vehicle id="13" depart="14.44">
        <route edges="13_3way_18to4way_19 36_4way_19to4way_13 37_4way_13to4way_7"/>
    </vehicle>
    <vehicle id="14" depart="15.56">
        <route edges="43_4way_9to4way_15 42_4way_15to4way_21 50_4way_21to4way_27 29_4way_27to3way_33 28_3way_33to3way_34"/>
    </vehicle>
    <vehicle id="15" depart="16.67">
        <route edges="13_4way_19to3way_18 7_3way_18to3way_12"/>
    </vehicle>
    <vehicle id="16" depart="17.78">
        <route edges="46_4way_25to4way_19 36_4way_19to4way_13 37_4way_13to4way_7 3_4way_7to3way_1"/>
    </vehicle>
    <vehicle id="17" depart="18.89">
        <route edges="38_4way_14to4way_15 41_4way_15to4way_16 44_4way_16to4way_22"/>
    </vehicle>
    <vehicle id="18" depart="20.00">
        <route edges="12_3way_18to3way_24 18_3way_24to3way_31"/>
    </vehicle>
    <vehicle id="19" depart="21.11">
        <route edges="15_3way_2to4way_8 40_4way_8to4way_14 39_4way_14to4way_20"/>
    </vehicle>
    <vehicle id="20" depart="22.22">
        <route edges="4_3way_11to3way_17 10_3way_17to3way_23"/>
    </vehicle>
    <vehicle id="21" depart="23.33">
        <route edges="24_3way_31to3way_32"/>
    </vehicle>
    <vehicle id="22" depart="24.44">
        <route edges="7_3way_12to3way_18 13_3way_18to4way_19"/>
    </vehicle>
    <vehicle id="23" depart="25.56">
        <route edges="31_3way_4to4way_10 33_4way_10to4way_16 44_4way_16to4way_22 51_4way_22to4way_28"/>
    </vehicle>
    <vehicle id="24" depart="26.67">
        <route edges="10_3way_17to3way_23"/>
    </vehicle>
    <vehicle id="25" depart="27.78">
        <route edges="30_3way_34to4way_28 51_4way_28to4way_22 44_4way_22to4way_16 33_4way_16to4way_10 34_4way_10to4way_9 56_4way_9to4way_8"/>
    </vehicle>
    <vehicle id="26" depart="28.89">
        <route edges="16_3way_29to3way_23 17_3way_23to4way_22 49_4way_22to4way_21 47_4way_21to4way_20 45_4way_20to4way_19 13_4way_19to3way_18 7_3way_18to3way_12"/>
    </vehicle>
    <vehicle id="27" depart="30.00">
        <route edges="31_3way_4to4way_10 33_4way_10to4way_16 11_4way_16to3way_17"/>
    </vehicle>
    <vehicle id="28" depart="31.11">
        <route edges="6_3way_11to4way_10 34_4way_10to4way_9 56_4way_9to4way_8 40_4way_8to4way_14"/>
    </vehicle>
    <vehicle id="29" depart="32.22">
        <route edges="24_3way_31to3way_32 26_3way_32to3way_33 28_3way_33to3way_34 20_3way_34to3way_29 16_3way_29to3way_23"/>
    </vehicle>
    <vehicle id="30" depart="33.33">
        <route edges="22_3way_4to3way_3 23_3way_3to4way_9 43_4way_9to4way_15 42_4way_15to4way_21"/>
    </vehicle>
    <vehicle id="31" depart="34.44">
        <route edges="22_3way_4to3way_3 23_3way_3to4way_9 43_4way_9to4way_15 42_4way_15to4way_21"/>
    </vehicle>
    <vehicle id="32" depart="35.56">
        <route edges="7_3way_12to3way_18 12_3way_18to3way_24 19_3way_24to4way_25 52_4way_25to4way_26 53_4way_26to4way_27 54_4way_27to4way_28"/>
    </vehicle>
    <vehicle id="33" depart="36.67">
        <route edges="52_4way_25to4way_26 53_4way_26to4way_27 54_4way_27to4way_28"/>
    </vehicle>
    <vehicle id="34" depart="37.78">
        <route edges="15_3way_2to4way_8 40_4way_8to4way_14 39_4way_14to4way_20 48_4way_20to4way_26"/>
    </vehicle>
    <vehicle id="35" depart="38.89">
        <route edges="22_3way_4to3way_3 23_3way_3to4way_9 43_4way_9to4way_15 42_4way_15to4way_21 50_4way_21to4way_27 29_4way_27to3way_33"/>
    </vehicle>
    <vehicle id="36" depart="40.00">
        <route edges="31_3way_4to4way_10 33_4way_10to4way_16 44_4way_16to4way_22 51_4way_22to4way_28 30_4way_28to3way_34 28_3way_34to3way_33"/>
    </vehicle>
    <vehicle id="37" depart="41.11">
        <route edges="12_3way_18to3way_24 18_3way_24to3way_31 24_3way_31to3way_32"/>
    </vehicle>
    <vehicle id="38" depart="42.22">
        <route edges="39_4way_20to4way_14 40_4way_14to4way_8 15_4way_8to3way_2 14_3way_2to3way_3"/>
    </vehicle>
    <vehicle id="39" depart="43.33">
        <route edges="30_3way_34to4way_28 51_4way_28to4way_22 49_4way_22to4way_21 47_4way_21to4way_20 45_4way_20to4way_19"/>
    </vehicle>
    <vehicle id="40" depart="44.44">
        <route edges="31_3way_4to4way_10 34_4way_10to4way_9 56_4way_9to4way_8 55_4way_8to4way_7"/>
    </vehicle>
    <vehicle id="41" depart="45.56">
        <route edges="41_4way_16to4way_15 38_4way_15to4way_14 35_4way_14to4way_13 36_4way_13to4way_19"/>
    </vehicle>
    <vehicle id="42" depart="46.67">
        <route edges="39_4way_14to4way_20 48_4way_20to4way_26 27_4way_26to3way_32"/>
    </vehicle>
    <vehicle id="43" depart="47.78">
        <route edges="47_4way_20to4way_21 49_4way_21to4way_22 17_4way_22to3way_23 10_3way_23to3way_17 4_3way_17to3way_11"/>
    </vehicle>
    <vehicle id="44" depart="48.89">
        <route edges="10_3way_17to3way_23 16_3way_23to3way_29 20_3way_29to3way_34 28_3way_34to3way_33"/>
    </vehicle>
    <vehicle id="45" depart="50.00">
        <route edges="3_3way_1to4way_7 37_4way_7to4way_13 36_4way_13to4way_19"/>
    </vehicle>
    <vehicle id="46" depart="51.11">
        <route edges="3_3way_1to4way_7 37_4way_7to4way_13 36_4way_13to4way_19 45_4way_19to4way_20 47_4way_20to4way_21"/>
    </vehicle>
    <vehicle id="47" depart="52.22">
        <route edges="30_3way_34to4way_28 51_4way_28to4way_22 44_4way_22to4way_16 41_4way_16to4way_15 38_4way_15to4way_14"/>
    </vehicle>
    <vehicle id="48" depart="53.33">
        <route edges="49_4way_22to4way_21 47_4way_21to4way_20 48_4way_20to4way_26"/>
    </vehicle>
    <vehicle id="49" depart="54.44">
        <route edges="46_4way_19to4way_25 52_4way_25to4way_26 53_4way_26to4way_27 54_4way_27to4way_28 21_4way_28to3way_29"/>
    </vehicle>
    <vehicle id="50" depart="55.56">
        <route edges="17_4way_22to3way_23 16_3way_23to3way_29"/>
    </vehicle>
    <vehicle id="51" depart="56.67">
        <route edges="50_4way_27to4way_21 42_4way_21to4way_15 38_4way_15to4way_14 35_4way_14to4way_13 9_4way_13to3way_12"/>
    </vehicle>
    <vehicle id="52" depart="57.78">
        <route edges="29_3way_33to4way_27 50_4way_27to4way_21 47_4way_21to4way_20"/>
    </vehicle>
    <vehicle id="53" depart="58.89">
        <route edges="19_3way_24to4way_25 52_4way_25to4way_26 53_4way_26to4way_27 50_4way_27to4way_21"/>
    </vehicle>
    <vehicle id="54" depart="60.00">
        <route edges="45_4way_19to4way_20 47_4way_20to4way_21 49_4way_21to4way_22 44_4way_22to4way_16 33_4way_16to4way_10"/>
    </vehicle>
    <vehicle id="55" depart="61.11">
        <route edges="47_4way_20to4way_21 49_4way_21to4way_22 44_4way_22to4way_16 33_4way_16to4way_10"/>
    </vehicle>
    <vehicle id="56" depart="62.22">
        <route edges="55_4way_7to4way_8 40_4way_8to4way_14 39_4way_14to4way_20 48_4way_20to4way_26"/>
    </vehicle>
    <vehicle id="57" depart="63.33">
        <route edges="40_4way_8to4way_14 39_4way_14to4way_20 47_4way_20to4way_21 49_4way_21to4way_22"/>
    </vehicle>
    <vehicle id="58" depart="64.44">
        <route edges="46_4way_25to4way_19 13_4way_19to3way_18"/>
    </vehicle>
    <vehicle id="59" depart="65.56">
        <route edges="29_3way_33to4way_27 50_4way_27to4way_21 42_4way_21to4way_15 43_4way_15to4way_9 23_4way_9to3way_3 14_3way_3to3way_2 1_3way_2to3way_1"/>
    </vehicle>
    <vehicle id="60" depart="66.67">
        <route edges="29_3way_33to4way_27 50_4way_27to4way_21 42_4way_21to4way_15 38_4way_15to4way_14"/>
    </vehicle>
    <vehicle id="61" depart="67.78">
        <route edges="12_3way_18to3way_24 19_3way_24to4way_25"/>
    </vehicle>
    <vehicle id="62" depart="68.89">
        <route edges="28_3way_33to3way_34 20_3way_34to3way_29 16_3way_29to3way_23 10_3way_23to3way_17 4_3way_17to3way_11"/>
    </vehicle>
    <vehicle id="63" depart="70.00">
        <route edges="55_4way_8to4way_7 37_4way_7to4way_13 36_4way_13to4way_19"/>
    </vehicle>
    <vehicle id="64" depart="71.11">
        <route edges="13_3way_18to4way_19 45_4way_19to4way_20 39_4way_20to4way_14 40_4way_14to4way_8"/>
    </vehicle>
    <vehicle id="65" depart="72.22">
        <route edges="24_3way_31to3way_32 26_3way_32to3way_33 28_3way_33to3way_34 30_3way_34to4way_28 51_4way_28to4way_22 44_4way_22to4way_16 33_4way_16to4way_10"/>
    </vehicle>
    <vehicle id="66" depart="73.33">
        <route edges="34_4way_10to4way_9 56_4way_9to4way_8 55_4way_8to4way_7 32_4way_7to3way_6 8_3way_6to3way_12 7_3way_12to3way_18"/>
    </vehicle>
    <vehicle id="67" depart="74.44">
        <route edges="47_4way_20to4way_21 42_4way_21to4way_15"/>
    </vehicle>
    <vehicle id="68" depart="75.56">
        <route edges="33_4way_16to4way_10 31_4way_10to3way_4"/>
    </vehicle>
    <vehicle id="69" depart="76.67">
        <route edges="51_4way_28to4way_22 49_4way_22to4way_21 47_4way_21to4way_20"/>
    </vehicle>
    <vehicle id="70" depart="77.78">
        <route edges="54_4way_27to4way_28 21_4way_28to3way_29 16_3way_29to3way_23 10_3way_23to3way_17 4_3way_17to3way_11"/>
    </vehicle>
    <vehicle id="71" depart="78.89">
        <route edges="52_4way_25to4way_26 53_4way_26to4way_27 54_4way_27to4way_28 21_4way_28to3way_29 16_3way_29to3way_23 10_3way_23to3way_17"/>
    </vehicle>
    <vehicle id="72" depart="80.00">
        <route edges="50_4way_27to4way_21 42_4way_21to4way_15 43_4way_15to4way_9 23_4way_9to3way_3 22_3way_3to3way_4"/>
    </vehicle>
    <vehicle id="73" depart="81.11">
        <route edges="45_4way_19to4way_20 47_4way_20to4way_21 42_4way_21to4way_15"/>
    </vehicle>
    <vehicle id="74" depart="82.22">
        <route edges="14_3way_3to3way_2 1_3way_2to3way_1 2_3way_1to3way_6 8_3way_6to3way_12 7_3way_12to3way_18"/>
    </vehicle>
    <vehicle id="75" depart="83.33">
        <route edges="7_3way_12to3way_18 13_3way_18to4way_19 45_4way_19to4way_20"/>
    </vehicle>
    <vehicle id="76" depart="84.44">
        <route edges="53_4way_27to4way_26"/>
    </vehicle>
    <vehicle id="77" depart="85.56">
        <route edges="54_4way_27to4way_28"/>
    </vehicle>
    <vehicle id="78" depart="86.67">
        <route edges="25_3way_31to4way_25 46_4way_25to4way_19 36_4way_19to4way_13 37_4way_13to4way_7 3_4way_7to3way_1"/>
    </vehicle>
    <vehicle id="79" depart="87.78">
        <route edges="11_3way_17to4way_16 41_4way_16to4way_15 38_4way_15to4way_14 39_4way_14to4way_20 48_4way_20to4way_26"/>
    </vehicle>
    <vehicle id="80" depart="88.89">
        <route edges="1_3way_2to3way_1 3_3way_1to4way_7"/>
    </vehicle>
    <vehicle id="81" depart="90.00">
        <route edges="3_3way_1to4way_7 37_4way_7to4way_13 36_4way_13to4way_19 45_4way_19to4way_20 47_4way_20to4way_21 49_4way_21to4way_22 17_4way_22to3way_23"/>
    </vehicle>
    <vehicle id="82" depart="91.11">
        <route edges="16_3way_29to3way_23 10_3way_23to3way_17 11_3way_17to4way_16 41_4way_16to4way_15"/>
    </vehicle>
    <vehicle id="83" depart="92.22">
        <route edges="44_4way_16to4way_22 51_4way_22to4way_28 30_4way_28to3way_34 28_3way_34to3way_33 26_3way_33to3way_32 24_3way_32to3way_31"/>
    </vehicle>
    <vehicle id="84" depart="93.33">
        <route edges="15_3way_2to4way_8 40_4way_8to4way_14 39_4way_14to4way_20"/>
    </vehicle>
    <vehicle id="85" depart="94.44">
        <route edges="52_4way_25to4way_26 53_4way_26to4way_27 54_4way_27to4way_28 21_4way_28to3way_29 16_3way_29to3way_23 10_3way_23to3way_17"/>
    </vehicle>
    <vehicle id="86" depart="95.56">
        <route edges="16_3way_29to3way_23 17_3way_23to4way_22 49_4way_22to4way_21 47_4way_21to4way_20 45_4way_20to4way_19"/>
    </vehicle>
    <vehicle id="87" depart="96.67">
        <route edges="52_4way_25to4way_26 53_4way_26to4way_27 54_4way_27to4way_28 51_4way_28to4way_22 44_4way_22to4way_16"/>
    </vehicle>
    <vehicle id="88" depart="97.78">
        <route edges="36_4way_19to4way_13"/>
    </vehicle>
    <vehicle id="89" depart="98.89">
        <route edges="29_3way_33to4way_27 53_4way_27to4way_26"/>
    </vehicle>
    <vehicle id="90" depart="100.00">
        <route edges="17_3way_23to4way_22 49_4way_22to4way_21 47_4way_21to4way_20 45_4way_20to4way_19 13_4way_19to3way_18 12_3way_18to3way_24"/>
    </vehicle>
    <vehicle id="91" depart="101.11">
        <route edges="17_4way_22to3way_23 10_3way_23to3way_17"/>
    </vehicle>
    <vehicle id="92" depart="102.22">
        <route edges="32_3way_6to4way_7 55_4way_7to4way_8 40_4way_8to4way_14 39_4way_14to4way_20 48_4way_20to4way_26"/>
    </vehicle>
    <vehicle id="93" depart="103.33">
        <route edges="20_3way_34to3way_29"/>
    </vehicle>
    <vehicle id="94" depart="104.44">
        <route edges="13_3way_18to4way_19 36_4way_19to4way_13 37_4way_13to4way_7 3_4way_7to3way_1 1_3way_1to3way_2"/>
    </vehicle>
    <vehicle id="95" depart="105.56">
        <route edges="48_4way_20to4way_26 27_4way_26to3way_32 26_3way_32to3way_33"/>
    </vehicle>
    <vehicle id="96" depart="106.67">
        <route edges="11_3way_17to4way_16 41_4way_16to4way_15 38_4way_15to4way_14 35_4way_14to4way_13 9_4way_13to3way_12 7_3way_12to3way_18 12_3way_18to3way_24"/>
    </vehicle>
    <vehicle id="97" depart="107.78">
        <route edges="14_3way_3to3way_2 1_3way_2to3way_1"/>
    </vehicle>
    <vehicle id="98" depart="108.89">
        <route edges="9_3way_12to4way_13 35_4way_13to4way_14"/>
    </vehicle>
    <vehicle id="99" depart="110.00">
        <route edges="34_4way_10to4way_9 56_4way_9to4way_8 55_4way_8to4way_7 37_4way_7to4way_13"/>
    </vehicle>
    <vehicle id="100" depart="111.11">
        <route edges="17_3way_23to4way_22 51_4way_22to4way_28"/>
    </vehicle>
    <vehicle id="101" depart="112.22">
        <route edges="30_3way_34to4way_28 51_4way_28to4way_22 44_4way_22to4way_16 41_4way_16to4way_15 38_4way_15to4way_14"/>
    </vehicle>
    <vehicle id="102" depart="113.33">
        <route edges="23_4way_9to3way_3 14_3way_3to3way_2 1_3way_2to3way_1"/>
    </vehicle>
    <vehicle id="103" depart="114.44">
        <route edges="18_3way_24to3way_31 24_3way_31to3way_32"/>
    </vehicle>
    <vehicle id="104" depart="115.55">
        <route edges="47_4way_21to4way_20 45_4way_20to4way_19"/>
    </vehicle>
    <vehicle id="105" depart="116.67">
        <route edges="50_4way_27to4way_21 42_4way_21to4way_15 43_4way_15to4way_9 56_4way_9to4way_8"/>
    </vehicle>
    <vehicle id="106" depart="117.78">
        <route edges="42_4way_15to4way_21 50_4way_21to4way_27 29_4way_27to3way_33 28_3way_33to3way_34"/>
    </vehicle>
    <vehicle id="107" depart="118.89">
        <route edges="17_4way_22to3way_23 10_3way_23to3way_17"/>
    </vehicle>
    <vehicle id="108" depart="120.00">
        <route edges="10_3way_23to3way_17 11_3way_17to4way_16 41_4way_16to4way_15 38_4way_15to4way_14"/>
    </vehicle>
    <vehicle id="109" depart="121.11">
        <route edges="53_4way_26to4way_27 54_4way_27to4way_28 51_4way_28to4way_22"/>
    </vehicle>
    <vehicle id="110" depart="122.22">
        <route edges="16_3way_23to3way_29 20_3way_29to3way_34"/>
    </vehicle>
    <vehicle id="111" depart="123.33">
        <route edges="3_3way_1to4way_7"/>
    </vehicle>
    <vehicle id="112" depart="124.44">
        <route edges="13_3way_18to4way_19 45_4way_19to4way_20 47_4way_20to4way_21 49_4way_21to4way_22 17_4way_22to3way_23"/>
    </vehicle>
    <vehicle id="113" depart="125.55">
        <route edges="7_3way_12to3way_18 12_3way_18to3way_24 18_3way_24to3way_31"/>
    </vehicle>
    <vehicle id="114" depart="126.67">
        <route edges="46_4way_19to4way_25 25_4way_25to3way_31 24_3way_31to3way_32 26_3way_32to3way_33 28_3way_33to3way_34"/>
    </vehicle>
    <vehicle id="115" depart="127.78">
        <route edges="22_3way_4to3way_3 23_3way_3to4way_9 43_4way_9to4way_15 42_4way_15to4way_21 50_4way_21to4way_27"/>
    </vehicle>
    <vehicle id="116" depart="128.89">
        <route edges="6_3way_11to4way_10 34_4way_10to4way_9 56_4way_9to4way_8 55_4way_8to4way_7"/>
    </vehicle>
    <vehicle id="117" depart="130.00">
        <route edges="19_3way_24to4way_25 52_4way_25to4way_26 48_4way_26to4way_20"/>
    </vehicle>
    <vehicle id="118" depart="131.11">
        <route edges="11_3way_17to4way_16 41_4way_16to4way_15 38_4way_15to4way_14 35_4way_14to4way_13 36_4way_13to4way_19"/>
    </vehicle>
    <vehicle id="119" depart="132.22">
        <route edges="32_3way_6to4way_7 55_4way_7to4way_8 56_4way_8to4way_9 34_4way_9to4way_10 6_4way_10to3way_11"/>
    </vehicle>
    <vehicle id="120" depart="133.33">
        <route edges="49_4way_22to4way_21 47_4way_21to4way_20 45_4way_20to4way_19 46_4way_19to4way_25 25_4way_25to3way_31"/>
    </vehicle>
    <vehicle id="121" depart="134.44">
        <route edges="53_4way_26to4way_27 50_4way_27to4way_21 42_4way_21to4way_15 43_4way_15to4way_9"/>
    </vehicle>
    <vehicle id="122" depart="135.55">
        <route edges="23_3way_3to4way_9 34_4way_9to4way_10"/>
    </vehicle>
    <vehicle id="123" depart="136.67">
        <route edges="36_4way_19to4way_13"/>
    </vehicle>
    <vehicle id="124" depart="137.78">
        <route edges="28_3way_33to3way_34 30_3way_34to4way_28 51_4way_28to4way_22"/>
    </vehicle>
    <vehicle id="125" depart="138.89">
        <route edges="31_3way_4to4way_10 33_4way_10to4way_16 44_4way_16to4way_22 51_4way_22to4way_28 21_4way_28to3way_29"/>
    </vehicle>
    <vehicle id="126" depart="140.00">
        <route edges="33_4way_16to4way_10 31_4way_10to3way_4 22_3way_4to3way_3 14_3way_3to3way_2 1_3way_2to3way_1"/>
    </vehicle>
    <vehicle id="127" depart="141.11">
        <route edges="38_4way_15to4way_14"/>
    </vehicle>
    <vehicle id="128" depart="142.22">
        <route edges="46_4way_19to4way_25 25_4way_25to3way_31 24_3way_31to3way_32 26_3way_32to3way_33"/>
    </vehicle>
    <vehicle id="129" depart="143.33">
        <route edges="2_3way_6to3way_1 1_3way_1to3way_2 14_3way_2to3way_3"/>
    </vehicle>
    <vehicle id="130" depart="144.44">
        <route edges="33_4way_10to4way_16 44_4way_16to4way_22 51_4way_22to4way_28"/>
    </vehicle>
    <vehicle id="131" depart="145.55">
        <route edges="49_4way_22to4way_21 47_4way_21to4way_20 48_4way_20to4way_26 27_4way_26to3way_32"/>
    </vehicle>
    <vehicle id="132" depart="146.67">
        <route edges="51_4way_22to4way_28 21_4way_28to3way_29"/>
    </vehicle>
    <vehicle id="133" depart="147.78">
        <route edges="42_4way_15to4way_21 49_4way_21to4way_22"/>
    </vehicle>
    <vehicle id="134" depart="148.89">
        <route edges="50_4way_27to4way_21 42_4way_21to4way_15 43_4way_15to4way_9 56_4way_9to4way_8"/>
    </vehicle>
    <vehicle id="135" depart="150.00">
        <route edges="29_4way_27to3way_33"/>
    </vehicle>
    <vehicle id="136" depart="151.11">
        <route edges="3_3way_1to4way_7 37_4way_7to4way_13 36_4way_13to4way_19 46_4way_19to4way_25"/>
    </vehicle>
    <vehicle id="137" depart="152.22">
        <route edges="4_3way_11to3way_17 10_3way_17to3way_23 16_3way_23to3way_29 20_3way_29to3way_34 28_3way_34to3way_33 26_3way_33to3way_32 24_3way_32to3way_31"/>
    </vehicle>
    <vehicle id="138" depart="153.33">
        <route edges="8_3way_6to3way_12 7_3way_12to3way_18 12_3way_18to3way_24 19_3way_24to4way_25 52_4way_25to4way_26 53_4way_26to4way_27 54_4way_27to4way_28"/>
    </vehicle>
    <vehicle id="139" depart="154.44">
        <route edges="55_4way_8to4way_7 32_4way_7to3way_6"/>
    </vehicle>
    <vehicle id="140" depart="155.55">
        <route edges="6_3way_11to4way_10 34_4way_10to4way_9 56_4way_9to4way_8 55_4way_8to4way_7 37_4way_7to4way_13 36_4way_13to4way_19 46_4way_19to4way_25 25_4way_25to3way_31"/>
    </vehicle>
    <vehicle id="141" depart="156.67">
        <route edges="17_3way_23to4way_22 49_4way_22to4way_21"/>
    </vehicle>
    <vehicle id="142" depart="157.78">
        <route edges="16_3way_29to3way_23 10_3way_23to3way_17 4_3way_17to3way_11 6_3way_11to4way_10 34_4way_10to4way_9 56_4way_9to4way_8 55_4way_8to4way_7"/>
    </vehicle>
    <vehicle id="143" depart="158.89">
        <route edges="54_4way_27to4way_28 51_4way_28to4way_22 44_4way_22to4way_16 33_4way_16to4way_10 31_4way_10to3way_4"/>
    </vehicle>
    <vehicle id="144" depart="160.00">
        <route edges="51_4way_22to4way_28"/>
    </vehicle>
    <vehicle id="145" depart="161.11">
        <route edges="43_4way_9to4way_15 41_4way_15to4way_16"/>
    </vehicle>
    <vehicle id="146" depart="162.22">
        <route edges="14_3way_3to3way_2 15_3way_2to4way_8 40_4way_8to4way_14 39_4way_14to4way_20 48_4way_20to4way_26 27_4way_26to3way_32"/>
    </vehicle>
    <vehicle id="147" depart="163.33">
        <route edges="21_3way_29to4way_28 54_4way_28to4way_27 53_4way_27to4way_26 52_4way_26to4way_25 19_4way_25to3way_24 12_3way_24to3way_18"/>
    </vehicle>
    <vehicle id="148" depart="164.44">
        <route edges="15_3way_2to4way_8 56_4way_8to4way_9 34_4way_9to4way_10 6_4way_10to3way_11"/>
    </vehicle>
    <vehicle id="149" depart="165.55">
        <route edges="3_3way_1to4way_7 37_4way_7to4way_13 36_4way_13to4way_19 46_4way_19to4way_25 52_4way_25to4way_26"/>
    </vehicle>
    <vehicle id="150" depart="166.67">
        <route edges="6_3way_11to4way_10 34_4way_10to4way_9"/>
    </vehicle>
    <vehicle id="151" depart="167.78">
        <route edges="21_3way_29to4way_28 54_4way_28to4way_27 50_4way_27to4way_21 42_4way_21to4way_15 38_4way_15to4way_14"/>
    </vehicle>
    <vehicle id="152" depart="168.89">
        <route edges="9_4way_13to3way_12 7_3way_12to3way_18"/>
    </vehicle>
    <vehicle id="153" depart="170.00">
        <route edges="53_4way_26to4way_27"/>
    </vehicle>
    <vehicle id="154" depart="171.11">
        <route edges="4_3way_11to3way_17 10_3way_17to3way_23 16_3way_23to3way_29 20_3way_29to3way_34"/>
    </vehicle>
    <vehicle id="155" depart="172.22">
        <route edges="29_3way_33to4way_27 50_4way_27to4way_21 42_4way_21to4way_15 43_4way_15to4way_9 23_4way_9to3way_3 14_3way_3to3way_2"/>
    </vehicle>
    <vehicle id="156" depart="173.33">
        <route edges="7_3way_12to3way_18 12_3way_18to3way_24 18_3way_24to3way_31 24_3way_31to3way_32 26_3way_32to3way_33 28_3way_33to3way_34"/>
    </vehicle>
    <vehicle id="157" depart="174.44">
        <route edges="39_4way_20to4way_14"/>
    </vehicle>
    <vehicle id="158" depart="175.55">
        <route edges="18_3way_24to3way_31 24_3way_31to3way_32 26_3way_32to3way_33"/>
    </vehicle>
    <vehicle id="159" depart="176.67">
        <route edges="41_4way_15to4way_16 11_4way_16to3way_17"/>
    </vehicle>
    <vehicle id="160" depart="177.78">
        <route edges="39_4way_20to4way_14 40_4way_14to4way_8 15_4way_8to3way_2"/>
    </vehicle>
    <vehicle id="161" depart="178.89">
        <route edges="24_3way_31to3way_32 26_3way_32to3way_33 28_3way_33to3way_34"/>
    </vehicle>
    <vehicle id="162" depart="180.00">
        <route edges="30_3way_34to4way_28 51_4way_28to4way_22 49_4way_22to4way_21 47_4way_21to4way_20 45_4way_20to4way_19"/>
    </vehicle>
    <vehicle id="163" depart="181.11">
        <route edges="17_3way_23to4way_22 49_4way_22to4way_21 47_4way_21to4way_20 45_4way_20to4way_19 46_4way_19to4way_25 25_4way_25to3way_31"/>
    </vehicle>
    <vehicle id="164" depart="182.22">
        <route edges="1_3way_2to3way_1 2_3way_1to3way_6 8_3way_6to3way_12"/>
    </vehicle>
    <vehicle id="165" depart="183.33">
        <route edges="23_3way_3to4way_9 43_4way_9to4way_15"/>
    </vehicle>
    <vehicle id="166" depart="184.44">
        <route edges="29_3way_33to4way_27 50_4way_27to4way_21 42_4way_21to4way_15 43_4way_15to4way_9 56_4way_9to4way_8 55_4way_8to4way_7"/>
    </vehicle>
    <vehicle id="167" depart="185.55">
        <route edges="49_4way_22to4way_21 47_4way_21to4way_20 45_4way_20to4way_19"/>
    </vehicle>
    <vehicle id="168" depart="186.67">
        <route edges="15_3way_2to4way_8"/>
    </vehicle>
    <vehicle id="169" depart="187.78">
        <route edges="32_4way_7to3way_6 8_3way_6to3way_12 7_3way_12to3way_18"/>
    </vehicle>
    <vehicle id="170" depart="188.89">
        <route edges="35_4way_14to4way_13"/>
    </vehicle>
    <vehicle id="171" depart="190.00">
        <route edges="6_3way_11to4way_10 33_4way_10to4way_16 44_4way_16to4way_22 51_4way_22to4way_28 30_4way_28to3way_34"/>
    </vehicle>
    <vehicle id="172" depart="191.11">
        <route edges="49_4way_22to4way_21 47_4way_21to4way_20 45_4way_20to4way_19 13_4way_19to3way_18 12_3way_18to3way_24"/>
    </vehicle>
    <vehicle id="173" depart="192.22">
        <route edges="33_4way_10to4way_16 11_4way_16to3way_17"/>
    </vehicle>
    <vehicle id="174" depart="193.33">
        <route edges="9_3way_12to4way_13"/>
    </vehicle>
    <vehicle id="175" depart="194.44">
        <route edges="9_3way_12to4way_13 35_4way_13to4way_14 38_4way_14to4way_15 41_4way_15to4way_16 33_4way_16to4way_10"/>
    </vehicle>
    <vehicle id="176" depart="195.55">
        <route edges="19_3way_24to4way_25 52_4way_25to4way_26"/>
    </vehicle>
    <vehicle id="177" depart="196.67">
        <route edges="47_4way_20to4way_21 49_4way_21to4way_22 44_4way_22to4way_16 33_4way_16to4way_10"/>
    </vehicle>
    <vehicle id="178" depart="197.78">
        <route edges="27_3way_32to4way_26 48_4way_26to4way_20"/>
    </vehicle>
    <vehicle id="179" depart="198.89">
        <route edges="56_4way_8to4way_9"/>
    </vehicle>
    <vehicle id="180" depart="200.00">
        <route edges="10_3way_17to3way_23 16_3way_23to3way_29"/>
    </vehicle>
    <vehicle id="181" depart="201.11">
        <route edges="44_4way_22to4way_16 41_4way_16to4way_15"/>
    </vehicle>
    <vehicle id="182" depart="202.22">
        <route edges="36_4way_19to4way_13 9_4way_13to3way_12"/>
    </vehicle>
    <vehicle id="183" depart="203.33">
        <route edges="7_3way_12to3way_18 12_3way_18to3way_24 19_3way_24to4way_25 52_4way_25to4way_26 53_4way_26to4way_27"/>
    </vehicle>
    <vehicle id="184" depart="204.44">
        <route edges="45_4way_19to4way_20 47_4way_20to4way_21 49_4way_21to4way_22"/>
    </vehicle>
    <vehicle id="185" depart="205.55">
        <route edges="41_4way_16to4way_15 42_4way_15to4way_21"/>
    </vehicle>
    <vehicle id="186" depart="206.67">
        <route edges="11_3way_17to4way_16 41_4way_16to4way_15 42_4way_15to4way_21"/>
    </vehicle>
    <vehicle id="187" depart="207.78">
        <route edges="19_3way_24to4way_25 52_4way_25to4way_26 48_4way_26to4way_20 39_4way_20to4way_14 40_4way_14to4way_8"/>
    </vehicle>
    <vehicle id="188" depart="208.89">
        <route edges="13_3way_18to4way_19 45_4way_19to4way_20 47_4way_20to4way_21 42_4way_21to4way_15 43_4way_15to4way_9 23_4way_9to3way_3"/>
    </vehicle>
    <vehicle id="189" depart="210.00">
        <route edges="29_4way_27to3way_33 28_3way_33to3way_34"/>
    </vehicle>
    <vehicle id="190" depart="211.11">
        <route edges="44_4way_22to4way_16 33_4way_16to4way_10 31_4way_10to3way_4 22_3way_4to3way_3 14_3way_3to3way_2"/>
    </vehicle>
    <vehicle id="191" depart="212.22">
        <route edges="4_3way_17to3way_11 5_3way_11to3way_4 22_3way_4to3way_3 14_3way_3to3way_2 1_3way_2to3way_1"/>
    </vehicle>
    <vehicle id="192" depart="213.33">
        <route edges="41_4way_16to4way_15 38_4way_15to4way_14 35_4way_14to4way_13 9_4way_13to3way_12 7_3way_12to3way_18 12_3way_18to3way_24"/>
    </vehicle>
    <vehicle id="193" depart="214.44">