<?xml version="1.0" encoding="UTF-8"?>

<!-- generated on 2023-11-28 23:47:20 by Eclipse SUMO netconvert Version 1.12.0
<configuration xmlns:xsi="http://www.w3.org/2001/XMLSchema-instance" xsi:noNamespaceSchemaLocation="http://sumo.dlr.de/xsd/netconvertConfiguration.xsd">

    <input>
        <node-files value="sapporo_HY.nod.xml"/>
        <edge-files value="sapporo_HY.edg.xml"/>
    </input>

    <output>
        <output-file value="sapporo_HY.tmp.net.xml"/>
    </output>

    <processing>
        <lefthand value="true"/>
    </processing>

    <tls_building>
        <tls.discard-simple value="true"/>
        <tls.join value="true"/>
    </tls_building>

    <edge_removal>
        <keep-edges.components value="1"/>
    </edge_removal>

    <junctions>
        <no-turnarounds value="true"/>
    </junctions>

    <report>
        <aggregate-warnings value="5"/>
    </report>

</configuration>
-->

<net version="1.9" junctionCornerDetail="5" lefthand="true" limitTurnSpeed="5.50" xmlns:xsi="http://www.w3.org/2001/XMLSchema-instance" xsi:noNamespaceSchemaLocation="http://sumo.dlr.de/xsd/net_file.xsd">

    <location netOffset="0.00,700.00" convBoundary="0.00,-0.00,1000.00,700.00" origBoundary="0.00,-700.00,1000.00,0.00" projParameter="!"/>

    <edge id=":3way_A04_0" function="internal">
        <lane id=":3way_A04_0_0" index="0" speed="6.51" length="9.03" shape="398.40,692.80 398.05,695.25 397.00,697.00 395.25,698.05 392.80,698.40"/>
    </edge>
    <edge id=":3way_A04_1" function="internal">
        <lane id=":3way_A04_1_0" index="0" speed="8.00" length="14.19" shape="398.40,692.80 398.95,696.65 400.60,699.40 403.35,701.05 407.20,701.60"/>
    </edge>
    <edge id=":3way_A04_2" function="internal">
        <lane id=":3way_A04_2_0" index="0" speed="6.51" length="9.03" shape="407.20,698.40 404.75,698.05 403.00,697.00 401.95,695.25 401.60,692.80"/>
    </edge>
    <edge id=":3way_A04_3" function="internal">
        <lane id=":3way_A04_3_0" index="0" speed="13.89" length="14.40" shape="407.20,698.40 392.80,698.40"/>
    </edge>
    <edge id=":3way_A04_4" function="internal">
        <lane id=":3way_A04_4_0" index="0" speed="13.89" length="14.40" shape="392.80,701.60 407.20,701.60"/>
    </edge>
    <edge id=":3way_A04_5" function="internal">
        <lane id=":3way_A04_5_0" index="0" speed="8.00" length="4.07" shape="392.80,701.60 396.65,701.05 396.80,700.96"/>
    </edge>
    <edge id=":3way_A04_6" function="internal">
        <lane id=":3way_A04_6_0" index="0" speed="8.00" length="10.13" shape="396.80,700.96 399.40,699.40 401.05,696.65 401.60,692.80"/>
    </edge>
    <edge id=":3way_A05_0" function="internal">
        <lane id=":3way_A05_0_0" index="0" speed="6.51" length="9.03" shape="498.40,692.80 498.05,695.25 497.00,697.00 495.25,698.05 492.80,698.40"/>
    </edge>
    <edge id=":3way_A05_1" function="internal">
        <lane id=":3way_A05_1_0" index="0" speed="8.00" length="14.19" shape="498.40,692.80 498.95,696.65 500.60,699.40 503.35,701.05 507.20,701.60"/>
    </edge>
    <edge id=":3way_A05_2" function="internal">
        <lane id=":3way_A05_2_0" index="0" speed="6.51" length="9.03" shape="507.20,698.40 504.75,698.05 503.00,697.00 501.95,695.25 501.60,692.80"/>
    </edge>
    <edge id=":3way_A05_3" function="internal">
        <lane id=":3way_A05_3_0" index="0" speed="13.89" length="14.40" shape="507.20,698.40 492.80,698.40"/>
    </edge>
    <edge id=":3way_A05_4" function="internal">
        <lane id=":3way_A05_4_0" index="0" speed="13.89" length="14.40" shape="492.80,701.60 507.20,701.60"/>
    </edge>
    <edge id=":3way_A05_5" function="internal">
        <lane id=":3way_A05_5_0" index="0" speed="8.00" length="4.07" shape="492.80,701.60 496.65,701.05 496.80,700.96"/>
    </edge>
    <edge id=":3way_A05_6" function="internal">
        <lane id=":3way_A05_6_0" index="0" speed="8.00" length="10.13" shape="496.80,700.96 499.40,699.40 501.05,696.65 501.60,692.80"/>
    </edge>
    <edge id=":3way_A06_0" function="internal">
        <lane id=":3way_A06_0_0" index="0" speed="6.51" length="9.03" shape="598.40,692.80 598.05,695.25 597.00,697.00 595.25,698.05 592.80,698.40"/>
    </edge>
    <edge id=":3way_A06_1" function="internal">
        <lane id=":3way_A06_1_0" index="0" speed="8.00" length="14.19" shape="598.40,692.80 598.95,696.65 600.60,699.40 603.35,701.05 607.20,701.60"/>
    </edge>
    <edge id=":3way_A06_2" function="internal">
        <lane id=":3way_A06_2_0" index="0" speed="6.51" length="9.03" shape="607.20,698.40 604.75,698.05 603.00,697.00 601.95,695.25 601.60,692.80"/>
    </edge>
    <edge id=":3way_A06_3" function="internal">
        <lane id=":3way_A06_3_0" index="0" speed="13.89" length="14.40" shape="607.20,698.40 592.80,698.40"/>
    </edge>
    <edge id=":3way_A06_4" function="internal">
        <lane id=":3way_A06_4_0" index="0" speed="13.89" length="14.40" shape="592.80,701.60 607.20,701.60"/>
    </edge>
    <edge id=":3way_A06_5" function="internal">
        <lane id=":3way_A06_5_0" index="0" speed="8.00" length="4.07" shape="592.80,701.60 596.65,701.05 596.80,700.96"/>
    </edge>
    <edge id=":3way_A06_6" function="internal">
        <lane id=":3way_A06_6_0" index="0" speed="8.00" length="10.13" shape="596.80,700.96 599.40,699.40 601.05,696.65 601.60,692.80"/>
    </edge>
    <edge id=":3way_A07_0" function="internal">
        <lane id=":3way_A07_0_0" index="0" speed="6.51" length="9.03" shape="698.40,692.80 698.05,695.25 697.00,697.00 695.25,698.05 692.80,698.40"/>
    </edge>
    <edge id=":3way_A07_1" function="internal">
        <lane id=":3way_A07_1_0" index="0" speed="8.00" length="14.19" shape="698.40,692.80 698.95,696.65 700.60,699.40 703.35,701.05 707.20,701.60"/>
    </edge>
    <edge id=":3way_A07_2" function="internal">
        <lane id=":3way_A07_2_0" index="0" speed="6.51" length="9.03" shape="707.20,698.40 704.75,698.05 703.00,697.00 701.95,695.25 701.60,692.80"/>
    </edge>
    <edge id=":3way_A07_3" function="internal">
        <lane id=":3way_A07_3_0" index="0" speed="13.89" length="14.40" shape="707.20,698.40 692.80,698.40"/>
    </edge>
    <edge id=":3way_A07_4" function="internal">
        <lane id=":3way_A07_4_0" index="0" speed="13.89" length="14.40" shape="692.80,701.60 707.20,701.60"/>
    </edge>
    <edge id=":3way_A07_5" function="internal">
        <lane id=":3way_A07_5_0" index="0" speed="8.00" length="4.07" shape="692.80,701.60 696.65,701.05 696.80,700.96"/>
    </edge>
    <edge id=":3way_A07_6" function="internal">
        <lane id=":3way_A07_6_0" index="0" speed="8.00" length="10.13" shape="696.80,700.96 699.40,699.40 701.05,696.65 701.60,692.80"/>
    </edge>
    <edge id=":3way_A08_0" function="internal">
        <lane id=":3way_A08_0_0" index="0" speed="6.51" length="9.03" shape="798.40,692.80 798.05,695.25 797.00,697.00 795.25,698.05 792.80,698.40"/>
    </edge>
    <edge id=":3way_A08_1" function="internal">
        <lane id=":3way_A08_1_0" index="0" speed="8.00" length="14.19" shape="798.40,692.80 798.95,696.65 800.60,699.40 803.35,701.05 807.20,701.60"/>
    </edge>
    <edge id=":3way_A08_2" function="internal">
        <lane id=":3way_A08_2_0" index="0" speed="6.51" length="9.03" shape="807.20,698.40 804.75,698.05 803.00,697.00 801.95,695.25 801.60,692.80"/>
    </edge>
    <edge id=":3way_A08_3" function="internal">
        <lane id=":3way_A08_3_0" index="0" speed="13.89" length="14.40" shape="807.20,698.40 792.80,698.40"/>
    </edge>
    <edge id=":3way_A08_4" function="internal">
        <lane id=":3way_A08_4_0" index="0" speed="13.89" length="14.40" shape="792.80,701.60 807.20,701.60"/>
    </edge>
    <edge id=":3way_A08_5" function="internal">
        <lane id=":3way_A08_5_0" index="0" speed="8.00" length="4.07" shape="792.80,701.60 796.65,701.05 796.80,700.96"/>
    </edge>
    <edge id=":3way_A08_6" function="internal">
        <lane id=":3way_A08_6_0" index="0" speed="8.00" length="10.13" shape="796.80,700.96 799.40,699.40 801.05,696.65 801.60,692.80"/>
    </edge>
    <edge id=":3way_A09_0" function="internal">
        <lane id=":3way_A09_0_0" index="0" speed="6.51" length="9.03" shape="898.40,692.80 898.05,695.25 897.00,697.00 895.25,698.05 892.80,698.40"/>
    </edge>
    <edge id=":3way_A09_1" function="internal">
        <lane id=":3way_A09_1_0" index="0" speed="8.00" length="14.19" shape="898.40,692.80 898.95,696.65 900.60,699.40 903.35,701.05 907.20,701.60"/>
    </edge>
    <edge id=":3way_A09_2" function="internal">
        <lane id=":3way_A09_2_0" index="0" speed="6.51" length="9.03" shape="907.20,698.40 904.75,698.05 903.00,697.00 901.95,695.25 901.60,692.80"/>
    </edge>
    <edge id=":3way_A09_3" function="internal">
        <lane id=":3way_A09_3_0" index="0" speed="13.89" length="14.40" shape="907.20,698.40 892.80,698.40"/>
    </edge>
    <edge id=":3way_A09_4" function="internal">
        <lane id=":3way_A09_4_0" index="0" speed="13.89" length="14.40" shape="892.80,701.60 907.20,701.60"/>
    </edge>
    <edge id=":3way_A09_5" function="internal">
        <lane id=":3way_A09_5_0" index="0" speed="8.00" length="4.07" shape="892.80,701.60 896.65,701.05 896.80,700.96"/>
    </edge>
    <edge id=":3way_A09_6" function="internal">
        <lane id=":3way_A09_6_0" index="0" speed="8.00" length="10.13" shape="896.80,700.96 899.40,699.40 901.05,696.65 901.60,692.80"/>
    </edge>
    <edge id=":3way_B03_0" function="internal">
        <lane id=":3way_B03_0_0" index="0" speed="13.89" length="14.40" shape="298.40,592.80 298.40,607.20"/>
    </edge>
    <edge id=":3way_B03_1" function="internal">
        <lane id=":3way_B03_1_0" index="0" speed="8.00" length="4.07" shape="298.40,592.80 298.95,596.65 299.04,596.80"/>
    </edge>
    <edge id=":3way_B03_6" function="internal">
        <lane id=":3way_B03_6_0" index="0" speed="8.00" length="10.13" shape="299.04,596.80 300.60,599.40 303.35,601.05 307.20,601.60"/>
    </edge>
    <edge id=":3way_B03_2" function="internal">
        <lane id=":3way_B03_2_0" index="0" speed="6.51" length="9.03" shape="307.20,598.40 304.75,598.05 303.00,597.00 301.95,595.25 301.60,592.80"/>
    </edge>
    <edge id=":3way_B03_3" function="internal">
        <lane id=":3way_B03_3_0" index="0" speed="8.00" length="14.19" shape="307.20,598.40 303.35,598.95 300.60,600.60 298.95,603.35 298.40,607.20"/>
    </edge>
    <edge id=":3way_B03_4" function="internal">
        <lane id=":3way_B03_4_0" index="0" speed="6.51" length="9.03" shape="301.60,607.20 301.95,604.75 303.00,603.00 304.75,601.95 307.20,601.60"/>
    </edge>
    <edge id=":3way_B03_5" function="internal">
        <lane id=":3way_B03_5_0" index="0" speed="13.89" length="14.40" shape="301.60,607.20 301.60,592.80"/>
    </edge>
    <edge id=":3way_B05_0" function="internal">
        <lane id=":3way_B05_0_0" index="0" speed="13.89" length="14.40" shape="507.20,598.40 492.80,598.40"/>
    </edge>
    <edge id=":3way_B05_1" function="internal">
        <lane id=":3way_B05_1_0" index="0" speed="8.00" length="4.07" shape="507.20,598.40 503.35,598.95 503.20,599.04"/>
    </edge>
    <edge id=":3way_B05_6" function="internal">
        <lane id=":3way_B05_6_0" index="0" speed="8.00" length="10.13" shape="503.20,599.04 500.60,600.60 498.95,603.35 498.40,607.20"/>
    </edge>
    <edge id=":3way_B05_2" function="internal">
        <lane id=":3way_B05_2_0" index="0" speed="6.51" length="9.03" shape="501.60,607.20 501.95,604.75 503.00,603.00 504.75,601.95 507.20,601.60"/>
    </edge>
    <edge id=":3way_B05_3" function="internal">
        <lane id=":3way_B05_3_0" index="0" speed="8.00" length="14.19" shape="501.60,607.20 501.05,603.35 499.40,600.60 496.65,598.95 492.80,598.40"/>
    </edge>
    <edge id=":3way_B05_4" function="internal">
        <lane id=":3way_B05_4_0" index="0" speed="6.51" length="9.03" shape="492.80,601.60 495.25,601.95 497.00,603.00 498.05,604.75 498.40,607.20"/>
    </edge>
    <edge id=":3way_B05_5" function="internal">
        <lane id=":3way_B05_5_0" index="0" speed="13.89" length="14.40" shape="492.80,601.60 507.20,601.60"/>
    </edge>
    <edge id=":3way_B10_0" function="internal">
        <lane id=":3way_B10_0_0" index="0" speed="6.51" length="9.03" shape="998.40,592.80 998.05,595.25 997.00,597.00 995.25,598.05 992.80,598.40"/>
    </edge>
    <edge id=":3way_B10_1" function="internal">
        <lane id=":3way_B10_1_0" index="0" speed="13.89" length="14.40" shape="998.40,592.80 998.40,607.20"/>
    </edge>
    <edge id=":3way_B10_2" function="internal">
        <lane id=":3way_B10_2_0" index="0" speed="13.89" length="14.40" shape="1001.60,607.20 1001.60,592.80"/>
    </edge>
    <edge id=":3way_B10_3" function="internal">
        <lane id=":3way_B10_3_0" index="0" speed="8.00" length="4.07" shape="1001.60,607.20 1001.05,603.35 1000.96,603.20"/>
    </edge>
    <edge id=":3way_B10_6" function="internal">
        <lane id=":3way_B10_6_0" index="0" speed="8.00" length="10.13" shape="1000.96,603.20 999.40,600.60 996.65,598.95 992.80,598.40"/>
    </edge>
    <edge id=":3way_B10_4" function="internal">
        <lane id=":3way_B10_4_0" index="0" speed="6.51" length="9.03" shape="992.80,601.60 995.25,601.95 997.00,603.00 998.05,604.75 998.40,607.20"/>
    </edge>
    <edge id=":3way_B10_5" function="internal">
        <lane id=":3way_B10_5_0" index="0" speed="8.00" length="14.19" shape="992.80,601.60 996.65,601.05 999.40,599.40 1001.05,596.65 1001.60,592.80"/>
    </edge>
    <edge id=":3way_C03_0" function="internal">
        <lane id=":3way_C03_0_0" index="0" speed="13.89" length="14.40" shape="298.40,492.80 298.40,507.20"/>
    </edge>
    <edge id=":3way_C03_1" function="internal">
        <lane id=":3way_C03_1_0" index="0" speed="8.00" length="4.07" shape="298.40,492.80 298.95,496.65 299.04,496.80"/>
    </edge>
    <edge id=":3way_C03_6" function="internal">
        <lane id=":3way_C03_6_0" index="0" speed="8.00" length="10.13" shape="299.04,496.80 300.60,499.40 303.35,501.05 307.20,501.60"/>
    </edge>
    <edge id=":3way_C03_2" function="internal">
        <lane id=":3way_C03_2_0" index="0" speed="6.51" length="9.03" shape="307.20,498.40 304.75,498.05 303.00,497.00 301.95,495.25 301.60,492.80"/>
    </edge>
    <edge id=":3way_C03_3" function="internal">
        <lane id=":3way_C03_3_0" index="0" speed="8.00" length="14.19" shape="307.20,498.40 303.35,498.95 300.60,500.60 298.95,503.35 298.40,507.20"/>
    </edge>
    <edge id=":3way_C03_4" function="internal">
        <lane id=":3way_C03_4_0" index="0" speed="6.51" length="9.03" shape="301.60,507.20 301.95,504.75 303.00,503.00 304.75,501.95 307.20,501.60"/>
    </edge>
    <edge id=":3way_C03_5" function="internal">
        <lane id=":3way_C03_5_0" index="0" speed="13.89" length="14.40" shape="301.60,507.20 301.60,492.80"/>
    </edge>
    <edge id=":3way_C04_0" function="internal">
        <lane id=":3way_C04_0_0" index="0" speed="6.51" length="9.03" shape="398.40,492.80 398.05,495.25 397.00,497.00 395.25,498.05 392.80,498.40"/>
    </edge>
    <edge id=":3way_C04_1" function="internal">
        <lane id=":3way_C04_1_0" index="0" speed="13.89" length="14.40" shape="398.40,492.80 398.40,507.20"/>
    </edge>
    <edge id=":3way_C04_2" function="internal">
        <lane id=":3way_C04_2_0" index="0" speed="13.89" length="14.40" shape="401.60,507.20 401.60,492.80"/>
    </edge>
    <edge id=":3way_C04_3" function="internal">
        <lane id=":3way_C04_3_0" index="0" speed="8.00" length="4.07" shape="401.60,507.20 401.05,503.35 400.96,503.20"/>
    </edge>
    <edge id=":3way_C04_6" function="internal">
        <lane id=":3way_C04_6_0" index="0" speed="8.00" length="10.13" shape="400.96,503.20 399.40,500.60 396.65,498.95 392.80,498.40"/>
    </edge>
    <edge id=":3way_C04_4" function="internal">
        <lane id=":3way_C04_4_0" index="0" speed="6.51" length="9.03" shape="392.80,501.60 395.25,501.95 397.00,503.00 398.05,504.75 398.40,507.20"/>
    </edge>
    <edge id=":3way_C04_5" function="internal">
        <lane id=":3way_C04_5_0" index="0" speed="8.00" length="14.19" shape="392.80,501.60 396.65,501.05 399.40,499.40 401.05,496.65 401.60,492.80"/>
    </edge>
    <edge id=":3way_C06_0" function="internal">
        <lane id=":3way_C06_0_0" index="0" speed="13.89" length="14.40" shape="598.40,492.80 598.40,507.20"/>
    </edge>
    <edge id=":3way_C06_1" function="internal">
        <lane id=":3way_C06_1_0" index="0" speed="8.00" length="4.07" shape="598.40,492.80 598.95,496.65 599.04,496.80"/>
    </edge>
    <edge id=":3way_C06_6" function="internal">
        <lane id=":3way_C06_6_0" index="0" speed="8.00" length="10.13" shape="599.04,496.80 600.60,499.40 603.35,501.05 607.20,501.60"/>
    </edge>
    <edge id=":3way_C06_2" function="internal">
        <lane id=":3way_C06_2_0" index="0" speed="6.51" length="9.03" shape="607.20,498.40 604.75,498.05 603.00,497.00 601.95,495.25 601.60,492.80"/>
    </edge>
    <edge id=":3way_C06_3" function="internal">
        <lane id=":3way_C06_3_0" index="0" speed="8.00" length="14.19" shape="607.20,498.40 603.35,498.95 600.60,500.60 598.95,503.35 598.40,507.20"/>
    </edge>
    <edge id=":3way_C06_4" function="internal">
        <lane id=":3way_C06_4_0" index="0" speed="6.51" length="9.03" shape="601.60,507.20 601.95,504.75 603.00,503.00 604.75,501.95 607.20,501.60"/>
    </edge>
    <edge id=":3way_C06_5" function="internal">
        <lane id=":3way_C06_5_0" index="0" speed="13.89" length="14.40" shape="601.60,507.20 601.60,492.80"/>
    </edge>
    <edge id=":3way_C10_0" function="internal">
        <lane id=":3way_C10_0_0" index="0" speed="6.51" length="9.03" shape="998.40,492.80 998.05,495.25 997.00,497.00 995.25,498.05 992.80,498.40"/>
    </edge>
    <edge id=":3way_C10_1" function="internal">
        <lane id=":3way_C10_1_0" index="0" speed="13.89" length="14.40" shape="998.40,492.80 998.40,507.20"/>
    </edge>
    <edge id=":3way_C10_2" function="internal">
        <lane id=":3way_C10_2_0" index="0" speed="13.89" length="14.40" shape="1001.60,507.20 1001.60,492.80"/>
    </edge>
    <edge id=":3way_C10_3" function="internal">
        <lane id=":3way_C10_3_0" index="0" speed="8.00" length="4.07" shape="1001.60,507.20 1001.05,503.35 1000.96,503.20"/>
    </edge>
    <edge id=":3way_C10_6" function="internal">
        <lane id=":3way_C10_6_0" index="0" speed="8.00" length="10.13" shape="1000.96,503.20 999.40,500.60 996.65,498.95 992.80,498.40"/>
    </edge>
    <edge id=":3way_C10_4" function="internal">
        <lane id=":3way_C10_4_0" index="0" speed="6.51" length="9.03" shape="992.80,501.60 995.25,501.95 997.00,503.00 998.05,504.75 998.40,507.20"/>
    </edge>
    <edge id=":3way_C10_5" function="internal">
        <lane id=":3way_C10_5_0" index="0" speed="8.00" length="14.19" shape="992.80,501.60 996.65,501.05 999.40,499.40 1001.05,496.65 1001.60,492.80"/>
    </edge>
    <edge id=":3way_D01_0" function="internal">
        <lane id=":3way_D01_0_0" index="0" speed="6.51" length="9.03" shape="98.40,392.80 98.05,395.25 97.00,397.00 95.25,398.05 92.80,398.40"/>
    </edge>
    <edge id=":3way_D01_1" function="internal">
        <lane id=":3way_D01_1_0" index="0" speed="8.00" length="14.19" shape="98.40,392.80 98.95,396.65 100.60,399.40 103.35,401.05 107.20,401.60"/>
    </edge>
    <edge id=":3way_D01_2" function="internal">
        <lane id=":3way_D01_2_0" index="0" speed="6.51" length="9.03" shape="107.20,398.40 104.75,398.05 103.00,397.00 101.95,395.25 101.60,392.80"/>
    </edge>
    <edge id=":3way_D01_3" function="internal">
        <lane id=":3way_D01_3_0" index="0" speed="13.89" length="14.40" shape="107.20,398.40 92.80,398.40"/>
    </edge>
    <edge id=":3way_D01_4" function="internal">
        <lane id=":3way_D01_4_0" index="0" speed="13.89" length="14.40" shape="92.80,401.60 107.20,401.60"/>
    </edge>
    <edge id=":3way_D01_5" function="internal">
        <lane id=":3way_D01_5_0" index="0" speed="8.00" length="4.07" shape="92.80,401.60 96.65,401.05 96.80,400.96"/>
    </edge>
    <edge id=":3way_D01_6" function="internal">
        <lane id=":3way_D01_6_0" index="0" speed="8.00" length="10.13" shape="96.80,400.96 99.40,399.40 101.05,396.65 101.60,392.80"/>
    </edge>
    <edge id=":3way_D05_0" function="internal">
        <lane id=":3way_D05_0_0" index="0" speed="6.51" length="9.03" shape="498.40,392.80 498.05,395.25 497.00,397.00 495.25,398.05 492.80,398.40"/>
    </edge>
    <edge id=":3way_D05_1" function="internal">
        <lane id=":3way_D05_1_0" index="0" speed="8.00" length="14.19" shape="498.40,392.80 498.95,396.65 500.60,399.40 503.35,401.05 507.20,401.60"/>
    </edge>
    <edge id=":3way_D05_2" function="internal">
        <lane id=":3way_D05_2_0" index="0" speed="6.51" length="9.03" shape="507.20,398.40 504.75,398.05 503.00,397.00 501.95,395.25 501.60,392.80"/>
    </edge>
    <edge id=":3way_D05_3" function="internal">
        <lane id=":3way_D05_3_0" index="0" speed="13.89" length="14.40" shape="507.20,398.40 492.80,398.40"/>
    </edge>
    <edge id=":3way_D05_4" function="internal">
        <lane id=":3way_D05_4_0" index="0" speed="13.89" length="14.40" shape="492.80,401.60 507.20,401.60"/>
    </edge>
    <edge id=":3way_D05_5" function="internal">
        <lane id=":3way_D05_5_0" index="0" speed="8.00" length="4.07" shape="492.80,401.60 496.65,401.05 496.80,400.96"/>
    </edge>
    <edge id=":3way_D05_6" function="internal">
        <lane id=":3way_D05_6_0" index="0" speed="8.00" length="10.13" shape="496.80,400.96 499.40,399.40 501.05,396.65 501.60,392.80"/>
    </edge>
    <edge id=":3way_D10_0" function="internal">
        <lane id=":3way_D10_0_0" index="0" speed="6.51" length="9.03" shape="998.40,392.80 998.05,395.25 997.00,397.00 995.25,398.05 992.80,398.40"/>
    </edge>
    <edge id=":3way_D10_1" function="internal">
        <lane id=":3way_D10_1_0" index="0" speed="13.89" length="14.40" shape="998.40,392.80 998.40,407.20"/>
    </edge>
    <edge id=":3way_D10_2" function="internal">
        <lane id=":3way_D10_2_0" index="0" speed="13.89" length="14.40" shape="1001.60,407.20 1001.60,392.80"/>
    </edge>
    <edge id=":3way_D10_3" function="internal">
        <lane id=":3way_D10_3_0" index="0" speed="8.00" length="4.07" shape="1001.60,407.20 1001.05,403.35 1000.96,403.20"/>
    </edge>
    <edge id=":3way_D10_6" function="internal">
        <lane id=":3way_D10_6_0" index="0" speed="8.00" length="10.13" shape="1000.96,403.20 999.40,400.60 996.65,398.95 992.80,398.40"/>
    </edge>
    <edge id=":3way_D10_4" function="internal">
        <lane id=":3way_D10_4_0" index="0" speed="6.51" length="9.03" shape="992.80,401.60 995.25,401.95 997.00,403.00 998.05,404.75 998.40,407.20"/>
    </edge>
    <edge id=":3way_D10_5" function="internal">
        <lane id=":3way_D10_5_0" index="0" speed="8.00" length="14.19" shape="992.80,401.60 996.65,401.05 999.40,399.40 1001.05,396.65 1001.60,392.80"/>
    </edge>
    <edge id=":3way_E00_0" function="internal">
        <lane id=":3way_E00_0_0" index="0" speed="13.89" length="14.40" shape="-1.60,292.80 -1.60,307.20"/>
    </edge>
    <edge id=":3way_E00_1" function="internal">
        <lane id=":3way_E00_1_0" index="0" speed="8.00" length="4.07" shape="-1.60,292.80 -1.05,296.65 -0.96,296.80"/>
    </edge>
    <edge id=":3way_E00_6" function="internal">
        <lane id=":3way_E00_6_0" index="0" speed="8.00" length="10.13" shape="-0.96,296.80 0.60,299.40 3.35,301.05 7.20,301.60"/>
    </edge>
    <edge id=":3way_E00_2" function="internal">
        <lane id=":3way_E00_2_0" index="0" speed="6.51" length="9.03" shape="7.20,298.40 4.75,298.05 3.00,297.00 1.95,295.25 1.60,292.80"/>
    </edge>
    <edge id=":3way_E00_3" function="internal">
        <lane id=":3way_E00_3_0" index="0" speed="8.00" length="14.19" shape="7.20,298.40 3.35,298.95 0.60,300.60 -1.05,303.35 -1.60,307.20"/>
    </edge>
    <edge id=":3way_E00_4" function="internal">
        <lane id=":3way_E00_4_0" index="0" speed="6.51" length="9.03" shape="1.60,307.20 1.95,304.75 3.00,303.00 4.75,301.95 7.20,301.60"/>
    </edge>
    <edge id=":3way_E00_5" function="internal">
        <lane id=":3way_E00_5_0" index="0" speed="13.89" length="14.40" shape="1.60,307.20 1.60,292.80"/>
    </edge>
    <edge id=":3way_E02_0" function="internal">
        <lane id=":3way_E02_0_0" index="0" speed="6.51" length="9.03" shape="198.40,292.80 198.05,295.25 197.00,297.00 195.25,298.05 192.80,298.40"/>
    </edge>
    <edge id=":3way_E02_1" function="internal">
        <lane id=":3way_E02_1_0" index="0" speed="8.00" length="14.19" shape="198.40,292.80 198.95,296.65 200.60,299.40 203.35,301.05 207.20,301.60"/>
    </edge>
    <edge id=":3way_E02_2" function="internal">
        <lane id=":3way_E02_2_0" index="0" speed="6.51" length="9.03" shape="207.20,298.40 204.75,298.05 203.00,297.00 201.95,295.25 201.60,292.80"/>
    </edge>
    <edge id=":3way_E02_3" function="internal">
        <lane id=":3way_E02_3_0" index="0" speed="13.89" length="14.40" shape="207.20,298.40 192.80,298.40"/>
    </edge>
    <edge id=":3way_E02_4" function="internal">
        <lane id=":3way_E02_4_0" index="0" speed="13.89" length="14.40" shape="192.80,301.60 207.20,301.60"/>
    </edge>
    <edge id=":3way_E02_5" function="internal">
        <lane id=":3way_E02_5_0" index="0" speed="8.00" length="4.07" shape="192.80,301.60 196.65,301.05 196.80,300.96"/>
    </edge>
    <edge id=":3way_E02_6" function="internal">
        <lane id=":3way_E02_6_0" index="0" speed="8.00" length="10.13" shape="196.80,300.96 199.40,299.40 201.05,296.65 201.60,292.80"/>
    </edge>
    <edge id=":3way_E10_0" function="internal">
        <lane id=":3way_E10_0_0" index="0" speed="6.51" length="9.03" shape="998.40,292.80 998.05,295.25 997.00,297.00 995.25,298.05 992.80,298.40"/>
    </edge>
    <edge id=":3way_E10_1" function="internal">
        <lane id=":3way_E10_1_0" index="0" speed="13.89" length="14.40" shape="998.40,292.80 998.40,307.20"/>
    </edge>
    <edge id=":3way_E10_2" function="internal">
        <lane id=":3way_E10_2_0" index="0" speed="13.89" length="14.40" shape="1001.60,307.20 1001.60,292.80"/>
    </edge>
    <edge id=":3way_E10_3" function="internal">
        <lane id=":3way_E10_3_0" index="0" speed="8.00" length="4.07" shape="1001.60,307.20 1001.05,303.35 1000.96,303.20"/>
    </edge>
    <edge id=":3way_E10_6" function="internal">
        <lane id=":3way_E10_6_0" index="0" speed="8.00" length="10.13" shape="1000.96,303.20 999.40,300.60 996.65,298.95 992.80,298.40"/>
    </edge>
    <edge id=":3way_E10_4" function="internal">
        <lane id=":3way_E10_4_0" index="0" speed="6.51" length="9.03" shape="992.80,301.60 995.25,301.95 997.00,303.00 998.05,304.75 998.40,307.20"/>
    </edge>
    <edge id=":3way_E10_5" function="internal">
        <lane id=":3way_E10_5_0" index="0" speed="8.00" length="14.19" shape="992.80,301.60 996.65,301.05 999.40,299.40 1001.05,296.65 1001.60,292.80"/>
    </edge>
    <edge id=":3way_F00_0" function="internal">
        <lane id=":3way_F00_0_0" index="0" speed="13.89" length="14.40" shape="-1.60,192.80 -1.60,207.20"/>
    </edge>
    <edge id=":3way_F00_1" function="internal">
        <lane id=":3way_F00_1_0" index="0" speed="8.00" length="4.07" shape="-1.60,192.80 -1.05,196.65 -0.96,196.80"/>
    </edge>
    <edge id=":3way_F00_6" function="internal">
        <lane id=":3way_F00_6_0" index="0" speed="8.00" length="10.13" shape="-0.96,196.80 0.60,199.40 3.35,201.05 7.20,201.60"/>
    </edge>
    <edge id=":3way_F00_2" function="internal">
        <lane id=":3way_F00_2_0" index="0" speed="6.51" length="9.03" shape="7.20,198.40 4.75,198.05 3.00,197.00 1.95,195.25 1.60,192.80"/>
    </edge>
    <edge id=":3way_F00_3" function="internal">
        <lane id=":3way_F00_3_0" index="0" speed="8.00" length="14.19" shape="7.20,198.40 3.35,198.95 0.60,200.60 -1.05,203.35 -1.60,207.20"/>
    </edge>
    <edge id=":3way_F00_4" function="internal">
        <lane id=":3way_F00_4_0" index="0" speed="6.51" length="9.03" shape="1.60,207.20 1.95,204.75 3.00,203.00 4.75,201.95 7.20,201.60"/>
    </edge>
    <edge id=":3way_F00_5" function="internal">
        <lane id=":3way_F00_5_0" index="0" speed="13.89" length="14.40" shape="1.60,207.20 1.60,192.80"/>
    </edge>
    <edge id=":3way_F10_0" function="internal">
        <lane id=":3way_F10_0_0" index="0" speed="6.51" length="9.03" shape="998.40,192.80 998.05,195.25 997.00,197.00 995.25,198.05 992.80,198.40"/>
    </edge>
    <edge id=":3way_F10_1" function="internal">
        <lane id=":3way_F10_1_0" index="0" speed="13.89" length="14.40" shape="998.40,192.80 998.40,207.20"/>
    </edge>
    <edge id=":3way_F10_2" function="internal">
        <lane id=":3way_F10_2_0" index="0" speed="13.89" length="14.40" shape="1001.60,207.20 1001.60,192.80"/>
    </edge>
    <edge id=":3way_F10_3" function="internal">
        <lane id=":3way_F10_3_0" index="0" speed="8.00" length="4.07" shape="1001.60,207.20 1001.05,203.35 1000.96,203.20"/>
    </edge>
    <edge id=":3way_F10_6" function="internal">
        <lane id=":3way_F10_6_0" index="0" speed="8.00" length="10.13" shape="1000.96,203.20 999.40,200.60 996.65,198.95 992.80,198.40"/>
    </edge>
    <edge id=":3way_F10_4" function="internal">
        <lane id=":3way_F10_4_0" index="0" speed="6.51" length="9.03" shape="992.80,201.60 995.25,201.95 997.00,203.00 998.05,204.75 998.40,207.20"/>
    </edge>
    <edge id=":3way_F10_5" function="internal">
        <lane id=":3way_F10_5_0" index="0" speed="8.00" length="14.19" shape="992.80,201.60 996.65,201.05 999.40,199.40 1001.05,196.65 1001.60,192.80"/>
    </edge>
    <edge id=":3way_G00_0" function="internal">
        <lane id=":3way_G00_0_0" index="0" speed="13.89" length="14.40" shape="-1.60,92.80 -1.60,107.20"/>
    </edge>
    <edge id=":3way_G00_1" function="internal">
        <lane id=":3way_G00_1_0" index="0" speed="8.00" length="4.07" shape="-1.60,92.80 -1.05,96.65 -0.96,96.80"/>
    </edge>
    <edge id=":3way_G00_6" function="internal">