<?xml version="1.0" encoding="UTF-8"?>

<!-- generated on 2023-07-28 17:14:45 by Eclipse SUMO duarouter Version 1.12.0
<configuration xmlns:xsi="http://www.w3.org/2001/XMLSchema-instance" xsi:noNamespaceSchemaLocation="http://sumo.dlr.de/xsd/duarouterConfiguration.xsd">

    <input>
        <net-file value="sq.net.xml"/>
        <route-files value="sq.trips.xml"/>
        <junction-taz value="true"/>
    </input>

    <output>
        <output-file value="sq.rou.xml"/>
        <alternatives-output value="sq.rou.alt.xml"/>
    </output>

    <processing>
        <weights.random-factor value="1.2"/>
    </processing>

    <time>
        <begin value="0"/>
        <end value="7200"/>
    </time>

    <report>
        <verbose value="true"/>
    </report>

    <random_number>
        <seed value="5"/>
    </random_number>

</configuration>
-->

<routes xmlns:xsi="http://www.w3.org/2001/XMLSchema-instance" xsi:noNamespaceSchemaLocation="http://sumo.dlr.de/xsd/routes_file.xsd">
    <vehicle id="0" depart="0.00">
        <route edges="63_4way_24to4way_31 72_4way_31to4way_38 77_4way_38to4way_37 76_4way_37to4way_36"/>
    </vehicle>
    <vehicle id="1" depart="0.38">
        <route edges="76_4way_36to4way_37 70_4way_37to4way_30 61_4way_30to4way_23"/>
    </vehicle>
    <vehicle id="2" depart="0.76">
        <route edges="70_4way_37to4way_30 61_4way_30to4way_23 51_4way_23to4way_16 52_4way_16to4way_9 80_4way_9to4way_8 40_4way_8to3way_7"/>
    </vehicle>
    <vehicle id="3" depart="1.14">
        <route edges="44_4way_12to4way_11 41_4way_11to4way_10 43_4way_10to4way_9 80_4way_9to4way_8 40_4way_8to3way_7"/>
    </vehicle>
    <vehicle id="4" depart="1.52">
        <route edges="14_3way_21to3way_28 19_3way_28to4way_29 67_4way_29to4way_30 69_4way_30to4way_31 71_4way_31to4way_32 73_4way_32to4way_33"/>
    </vehicle>
    <vehicle id="5" depart="1.91">
        <route edges="67_4way_29to4way_30 69_4way_30to4way_31 71_4way_31to4way_32 65_4way_32to4way_25 56_4way_25to4way_18 45_4way_18to4way_11"/>
    </vehicle>
    <vehicle id="6" depart="2.29">
        <route edges="46_4way_19to4way_12 44_4way_12to4way_11 41_4way_11to4way_10 43_4way_10to4way_9"/>
    </vehicle>
    <vehicle id="7" depart="2.67">
        <route edges="56_4way_25to4way_18 45_4way_18to4way_11 27_4way_11to3way_4 20_3way_4to3way_3 10_3way_3to3way_2 1_3way_2to3way_1"/>
    </vehicle>
    <vehicle id="8" depart="3.05">
        <route edges="74_4way_39to4way_32 65_4way_32to4way_25 56_4way_25to4way_18 45_4way_18to4way_11"/>
    </vehicle>
    <vehicle id="9" depart="3.43">
        <route edges="45_4way_11to4way_18 56_4way_18to4way_25 65_4way_25to4way_32 74_4way_32to4way_39 79_4way_39to4way_40"/>
    </vehicle>
    <vehicle id="10" depart="3.81">
        <route edges="41_4way_11to4way_10 43_4way_10to4way_9 80_4way_9to4way_8"/>
    </vehicle>
    <vehicle id="11" depart="4.19">
        <route edges="61_4way_30to4way_23 51_4way_23to4way_16 52_4way_16to4way_9 43_4way_9to4way_10 41_4way_10to4way_11 44_4way_11to4way_12 6_4way_12to3way_13"/>
    </vehicle>
    <vehicle id="12" depart="4.57">
        <route edges="17_4way_26to3way_27 12_3way_27to3way_20"/>
    </vehicle>
    <vehicle id="13" depart="4.95">
        <route edges="7_3way_14to3way_21 14_3way_21to3way_28 19_3way_28to4way_29"/>
    </vehicle>
    <vehicle id="14" depart="5.33">
        <route edges="35_4way_38to3way_45 34_3way_45to3way_46"/>
    </vehicle>
    <vehicle id="15" depart="5.71">
        <route edges="80_4way_9to4way_8"/>
    </vehicle>
    <vehicle id="16" depart="6.09">
        <route edges="51_4way_23to4way_16 52_4way_16to4way_9 11_4way_9to3way_2 1_3way_2to3way_1"/>
    </vehicle>
    <vehicle id="17" depart="6.48">
        <route edges="42_4way_10to4way_17 54_4way_17to4way_24 62_4way_24to4way_25 64_4way_25to4way_26"/>
    </vehicle>
    <vehicle id="18" depart="6.86">
        <route edges="8_3way_7to3way_14 7_3way_14to3way_21 14_3way_21to3way_28"/>
    </vehicle>
    <vehicle id="19" depart="7.24">
        <route edges="21_3way_3to4way_10 42_4way_10to4way_17"/>
    </vehicle>
    <vehicle id="20" depart="7.62">
        <route edges="4_3way_13to3way_20 12_3way_20to3way_27 16_3way_27to3way_34 22_3way_34to3way_41"/>
    </vehicle>
    <vehicle id="21" depart="8.00">
        <route edges="18_3way_28to3way_35 24_3way_35to3way_43"/>
    </vehicle>
    <vehicle id="22" depart="8.38">
        <route edges="40_3way_7to4way_8 80_4way_8to4way_9"/>
    </vehicle>
    <vehicle id="23" depart="8.76">
        <route edges="39_3way_5to4way_12 46_4way_12to4way_19 57_4way_19to4way_26 66_4way_26to4way_33 75_4way_33to4way_40"/>
    </vehicle>
    <vehicle id="24" depart="9.14">
        <route edges="16_3way_27to3way_34 22_3way_34to3way_41"/>
    </vehicle>
    <vehicle id="25" depart="9.52">
        <route edges="37_3way_46to4way_39 78_4way_39to4way_38 77_4way_38to4way_37"/>
    </vehicle>
    <vehicle id="26" depart="9.90">
        <route edges="38_3way_47to4way_40 75_4way_40to4way_33 66_4way_33to4way_26 57_4way_26to4way_19 46_4way_19to4way_12 44_4way_12to4way_11 41_4way_11to4way_10 43_4way_10to4way_9 80_4way_9to4way_8"/>
    </vehicle>
    <vehicle id="27" depart="10.28">
        <route edges="39_3way_5to4way_12 6_4way_12to3way_13 4_3way_13to3way_20 12_3way_20to3way_27"/>
    </vehicle>
    <vehicle id="28" depart="10.67">
        <route edges="13_3way_20to4way_19 55_4way_19to4way_18 53_4way_18to4way_17 50_4way_17to4way_16 51_4way_16to4way_23 61_4way_23to4way_30 70_4way_30to4way_37"/>
    </vehicle>
    <vehicle id="29" depart="11.05">
        <route edges="19_3way_28to4way_29 67_4way_29to4way_30 69_4way_30to4way_31 71_4way_31to4way_32 73_4way_32to4way_33 23_4way_33to3way_34"/>
    </vehicle>
    <vehicle id="30" depart="11.43">
        <route edges="26_3way_5to3way_4 27_3way_4to4way_11 45_4way_11to4way_18"/>
    </vehicle>
    <vehicle id="31" depart="11.81">
        <route edges="26_3way_5to3way_4 27_3way_4to4way_11 45_4way_11to4way_18 56_4way_18to4way_25"/>
    </vehicle>
    <vehicle id="32" depart="12.19">
        <route edges="48_4way_15to4way_22 59_4way_22to4way_29 67_4way_29to4way_30 69_4way_30to4way_31 71_4way_31to4way_32 73_4way_32to4way_33"/>
    </vehicle>
    <vehicle id="33" depart="12.57">
        <route edges="61_4way_23to4way_30 69_4way_30to4way_31 71_4way_31to4way_32 73_4way_32to4way_33"/>
    </vehicle>
    <vehicle id="34" depart="12.95">
        <route edges="11_3way_2to4way_9 52_4way_9to4way_16 51_4way_16to4way_23 61_4way_23to4way_30 69_4way_30to4way_31"/>
    </vehicle>
    <vehicle id="35" depart="13.33">
        <route edges="6_3way_13to4way_12 46_4way_12to4way_19 57_4way_19to4way_26 66_4way_26to4way_33 75_4way_33to4way_40 38_4way_40to3way_47 36_3way_47to3way_46 34_3way_46to3way_45"/>
    </vehicle>
    <vehicle id="36" depart="13.71">
        <route edges="4_3way_13to3way_20 12_3way_20to3way_27 16_3way_27to3way_34 22_3way_34to3way_41 28_3way_41to3way_47 36_3way_47to3way_46 34_3way_46to3way_45 32_3way_45to3way_44"/>
    </vehicle>
    <vehicle id="37" depart="14.09">
        <route edges="7_3way_14to3way_21 14_3way_21to3way_28 18_3way_28to3way_35 24_3way_35to3way_43"/>
    </vehicle>
    <vehicle id="38" depart="14.47">
        <route edges="42_4way_17to4way_10 21_4way_10to3way_3"/>
    </vehicle>
    <vehicle id="39" depart="14.86">
        <route edges="37_3way_46to4way_39 74_4way_39to4way_32 65_4way_32to4way_25 56_4way_25to4way_18 45_4way_18to4way_11 41_4way_11to4way_10 43_4way_10to4way_9"/>
    </vehicle>
    <vehicle id="40" depart="15.24">
        <route edges="26_3way_5to3way_4 20_3way_4to3way_3 10_3way_3to3way_2 1_3way_2to3way_1 3_3way_1to4way_8 49_4way_8to4way_15 48_4way_15to4way_22 59_4way_22to4way_29"/>
    </vehicle>
    <vehicle id="41" depart="15.62">
        <route edges="46_4way_19to4way_12 44_4way_12to4way_11 41_4way_11to4way_10 43_4way_10to4way_9"/>
    </vehicle>
    <vehicle id="42" depart="16.00">
        <route edges="43_4way_10to4way_9 80_4way_9to4way_8 49_4way_8to4way_15 48_4way_15to4way_22 59_4way_22to4way_29 68_4way_29to4way_36 31_4way_36to3way_43"/>
    </vehicle>
    <vehicle id="43" depart="16.38">
        <route edges="62_4way_24to4way_25 64_4way_25to4way_26 17_4way_26to3way_27 12_3way_27to3way_20 4_3way_20to3way_13"/>
    </vehicle>
    <vehicle id="44" depart="16.76">
        <route edges="23_3way_34to4way_33 73_4way_33to4way_32 71_4way_32to4way_31 69_4way_31to4way_30 70_4way_30to4way_37 33_4way_37to3way_44"/>
    </vehicle>
    <vehicle id="45" depart="17.14">
        <route edges="3_3way_1to4way_8 49_4way_8to4way_15 47_4way_15to4way_16"/>
    </vehicle>
    <vehicle id="46" depart="17.52">
        <route edges="3_3way_1to4way_8 49_4way_8to4way_15 48_4way_15to4way_22 58_4way_22to4way_23 60_4way_23to4way_24 62_4way_24to4way_25"/>
    </vehicle>
    <vehicle id="47" depart="17.90">
        <route edges="35_3way_45to4way_38 72_4way_38to4way_31 63_4way_31to4way_24 54_4way_24to4way_17 42_4way_17to4way_10"/>
    </vehicle>
    <vehicle id="48" depart="18.28">
        <route edges="73_4way_33to4way_32 71_4way_32to4way_31"/>
    </vehicle>
    <vehicle id="49" depart="18.66">
        <route edges="52_4way_9to4way_16 51_4way_16to4way_23 61_4way_23to4way_30 70_4way_30to4way_37 33_4way_37to3way_44 32_3way_44to3way_45 34_3way_45to3way_46"/>
    </vehicle>
    <vehicle id="50" depart="19.05">
        <route edges="52_4way_9to4way_16"/>
    </vehicle>
    <vehicle id="51" depart="19.43">
        <route edges="66_4way_26to4way_33 75_4way_33to4way_40 38_4way_40to3way_47"/>
    </vehicle>
    <vehicle id="52" depart="19.81">
        <route edges="65_4way_32to4way_25 56_4way_25to4way_18 45_4way_18to4way_11 41_4way_11to4way_10 43_4way_10to4way_9 80_4way_9to4way_8"/>
    </vehicle>
    <vehicle id="53" depart="20.19">
        <route edges="32_3way_44to3way_45 35_3way_45to4way_38 72_4way_38to4way_31 63_4way_31to4way_24 54_4way_24to4way_17"/>
    </vehicle>
    <vehicle id="54" depart="20.57">
        <route edges="15_3way_21to4way_22 58_4way_22to4way_23 60_4way_23to4way_24 62_4way_24to4way_25 56_4way_25to4way_18"/>
    </vehicle>
    <vehicle id="55" depart="20.95">
        <route edges="51_4way_16to4way_23 61_4way_23to4way_30 70_4way_30to4way_37 77_4way_37to4way_38 78_4way_38to4way_39"/>
    </vehicle>
    <vehicle id="56" depart="21.33">
        <route edges="54_4way_17to4way_24 63_4way_24to4way_31 72_4way_31to4way_38 78_4way_38to4way_39"/>
    </vehicle>
    <vehicle id="57" depart="21.71">
        <route edges="58_4way_22to4way_23 60_4way_23to4way_24"/>
    </vehicle>
    <vehicle id="58" depart="22.09">
        <route edges="69_4way_30to4way_31 71_4way_31to4way_32 73_4way_32to4way_33"/>
    </vehicle>
    <vehicle id="59" depart="22.47">
        <route edges="58_4way_23to4way_22 15_4way_22to3way_21 7_3way_21to3way_14 8_3way_14to3way_7"/>
    </vehicle>
    <vehicle id="60" depart="22.85">
        <route edges="33_3way_44to4way_37 70_4way_37to4way_30 61_4way_30to4way_23 51_4way_23to4way_16 52_4way_16to4way_9 11_4way_9to3way_2 1_3way_2to3way_1"/>
    </vehicle>
    <vehicle id="61" depart="23.24">
        <route edges="33_3way_44to4way_37"/>
    </vehicle>
    <vehicle id="62" depart="23.62">
        <route edges="8_3way_7to3way_14 7_3way_14to3way_21 15_3way_21to4way_22 58_4way_22to4way_23"/>
    </vehicle>
    <vehicle id="63" depart="24.00">
        <route edges="32_3way_44to3way_45 34_3way_45to3way_46 36_3way_46to3way_47 28_3way_47to3way_41 22_3way_41to3way_34 16_3way_34to3way_27 12_3way_27to3way_20"/>
    </vehicle>
    <vehicle id="64" depart="24.38">
        <route edges="52_4way_16to4way_9"/>
    </vehicle>
    <vehicle id="65" depart="24.76">
        <route edges="70_4way_37to4way_30 61_4way_30to4way_23 51_4way_23to4way_16 52_4way_16to4way_9"/>
    </vehicle>
    <vehicle id="66" depart="25.14">
        <route edges="8_3way_7to3way_14 7_3way_14to3way_21 14_3way_21to3way_28 18_3way_28to3way_35 25_3way_35to4way_36 76_4way_36to4way_37"/>
    </vehicle>
    <vehicle id="67" depart="25.52">
        <route edges="19_3way_28to4way_29 67_4way_29to4way_30 69_4way_30to4way_31 71_4way_31to4way_32 73_4way_32to4way_33 66_4way_33to4way_26 57_4way_26to4way_19 46_4way_19to4way_12"/>
    </vehicle>
    <vehicle id="68" depart="25.90">
        <route edges="44_4way_12to4way_11 41_4way_11to4way_10 43_4way_10to4way_9 80_4way_9to4way_8 40_4way_8to3way_7"/>
    </vehicle>
    <vehicle id="69" depart="26.28">
        <route edges="53_4way_17to4way_18"/>
    </vehicle>
    <vehicle id="70" depart="26.66">
        <route edges="46_4way_19to4way_12 39_4way_12to3way_5"/>
    </vehicle>
    <vehicle id="71" depart="27.04">
        <route edges="75_4way_40to4way_33 66_4way_33to4way_26 64_4way_26to4way_25 62_4way_25to4way_24"/>
    </vehicle>
    <vehicle id="72" depart="27.43">
        <route edges="79_4way_39to4way_40 29_4way_40to3way_41 22_3way_41to3way_34 16_3way_34to3way_27 12_3way_27to3way_20"/>
    </vehicle>
    <vehicle id="73" depart="27.81">
        <route edges="60_4way_23to4way_24 62_4way_24to4way_25 64_4way_25to4way_26 17_4way_26to3way_27"/>
    </vehicle>
    <vehicle id="74" depart="28.19">
        <route edges="73_4way_32to4way_33 23_4way_33to3way_34 16_3way_34to3way_27 12_3way_27to3way_20 4_3way_20to3way_13"/>
    </vehicle>
    <vehicle id="75" depart="28.57">
        <route edges="52_4way_9to4way_16 50_4way_16to4way_17 53_4way_17to4way_18"/>
    </vehicle>
    <vehicle id="76" depart="28.95">
        <route edges="20_3way_4to3way_3 10_3way_3to3way_2 1_3way_2to3way_1 2_3way_1to3way_7 8_3way_7to3way_14"/>
    </vehicle>
    <vehicle id="77" depart="29.33">
        <route edges="49_4way_8to4way_15 47_4way_15to4way_16 50_4way_16to4way_17"/>
    </vehicle>
    <vehicle id="78" depart="29.71">
        <route edges="65_4way_32to4way_25 62_4way_25to4way_24"/>
    </vehicle>
    <vehicle id="79" depart="30.09">
        <route edges="73_4way_32to4way_33"/>
    </vehicle>
    <vehicle id="80" depart="30.47">
        <route edges="19_3way_28to4way_29 59_4way_29to4way_22 48_4way_22to4way_15 49_4way_15to4way_8 3_4way_8to3way_1"/>
    </vehicle>
    <vehicle id="81" depart="30.85">
        <route edges="17_3way_27to4way_26 64_4way_26to4way_25 62_4way_25to4way_24"/>
    </vehicle>
    <vehicle id="82" depart="31.23">
        <route edges="21_3way_3to4way_10 42_4way_10to4way_17 54_4way_17to4way_24 60_4way_24to4way_23 58_4way_23to4way_22 59_4way_22to4way_29"/>
    </vehicle>
    <vehicle id="83" depart="31.62">
        <route edges="3_3way_1to4way_8 49_4way_8to4way_15 48_4way_15to4way_22 59_4way_22to4way_29 67_4way_29to4way_30 69_4way_30to4way_31 71_4way_31to4way_32 73_4way_32to4way_33 23_4way_33to3way_34"/>
    </vehicle>
    <vehicle id="84" depart="32.00">
        <route edges="38_3way_47to4way_40 75_4way_40to4way_33 66_4way_33to4way_26 57_4way_26to4way_19 46_4way_19to4way_12 44_4way_12to4way_11"/>
    </vehicle>
    <vehicle id="85" depart="32.38">
        <route edges="55_4way_19to4way_18 53_4way_18to4way_17 50_4way_17to4way_16 47_4way_16to4way_15 9_4way_15to3way_14 7_3way_14to3way_21 14_3way_21to3way_28 18_3way_28to3way_35"/>
    </vehicle>
    <vehicle id="86" depart="32.76">
        <route edges="11_3way_2to4way_9 52_4way_9to4way_16 50_4way_16to4way_17"/>
    </vehicle>
    <vehicle id="87" depart="33.14">
        <route edges="60_4way_23to4way_24 62_4way_24to4way_25 64_4way_25to4way_26 17_4way_26to3way_27"/>
    </vehicle>
    <vehicle id="88" depart="33.52">
        <route edges="38_3way_47to4way_40 75_4way_40to4way_33 66_4way_33to4way_26 57_4way_26to4way_19 46_4way_19to4way_12 44_4way_12to4way_11 41_4way_11to4way_10 43_4way_10to4way_9"/>
    </vehicle>
    <vehicle id="89" depart="33.90">
        <route edges="60_4way_23to4way_24 62_4way_24to4way_25 64_4way_25to4way_26"/>
    </vehicle>
    <vehicle id="90" depart="34.28">
        <route edges="47_4way_16to4way_15 48_4way_15to4way_22 59_4way_22to4way_29 68_4way_29to4way_36"/>
    </vehicle>
    <vehicle id="91" depart="34.66">
        <route edges="30_3way_43to3way_44 32_3way_44to3way_45 35_3way_45to4way_38 72_4way_38to4way_31 63_4way_31to4way_24"/>
    </vehicle>
    <vehicle id="92" depart="35.04">
        <route edges="29_3way_41to4way_40 79_4way_40to4way_39 78_4way_39to4way_38 77_4way_38to4way_37 76_4way_37to4way_36 25_4way_36to3way_35 18_3way_35to3way_28 14_3way_28to3way_21"/>
    </vehicle>
    <vehicle id="93" depart="35.42">
        <route edges="66_4way_26to4way_33 23_4way_33to3way_34"/>
    </vehicle>
    <vehicle id="94" depart="35.81">
        <route edges="59_4way_22to4way_29 67_4way_29to4way_30 69_4way_30to4way_31"/>
    </vehicle>
    <vehicle id="95" depart="36.19">
        <route edges="36_3way_46to3way_47"/>
    </vehicle>
    <vehicle id="96" depart="36.57">
        <route edges="2_3way_7to3way_1 1_3way_1to3way_2 10_3way_2to3way_3"/>
    </vehicle>
    <vehicle id="97" depart="36.95">
        <route edges="50_4way_17to4way_16 47_4way_16to4way_15 48_4way_15to4way_22 59_4way_22to4way_29 68_4way_29to4way_36 31_4way_36to3way_43"/>
    </vehicle>
    <vehicle id="98" depart="37.33">
        <route edges="23_3way_34to4way_33 73_4way_33to4way_32 71_4way_32to4way_31 69_4way_31to4way_30 67_4way_30to4way_29 19_4way_29to3way_28"/>
    </vehicle>
    <vehicle id="99" depart="37.71">
        <route edges="20_3way_4to3way_3 10_3way_3to3way_2"/>
    </vehicle>
    <vehicle id="100" depart="38.09">
        <route edges="80_4way_8to4way_9 43_4way_9to4way_10"/>
    </vehicle>
    <vehicle id="101" depart="38.47">
        <route edges="44_4way_12to4way_11 41_4way_11to4way_10 43_4way_10to4way_9 80_4way_9to4way_8 49_4way_8to4way_15 48_4way_15to4way_22 59_4way_22to4way_29 68_4way_29to4way_36"/>
    </vehicle>
    <vehicle id="102" depart="38.85">
        <route edges="29_3way_41to4way_40"/>
    </vehicle>
    <vehicle id="103" depart="39.23">
        <route edges="37_3way_46to4way_39 78_4way_39to4way_38 77_4way_38to4way_37"/>
    </vehicle>
    <vehicle id="104" depart="39.61">
        <route edges="72_4way_38to4way_31 63_4way_31to4way_24 54_4way_24to4way_17 42_4way_17to4way_10 21_4way_10to3way_3 10_3way_3to3way_2 1_3way_2to3way_1"/>
    </vehicle>
    <vehicle id="105" depart="40.00">
        <route edges="14_3way_21to3way_28 18_3way_28to3way_35 24_3way_35to3way_43"/>
    </vehicle>
    <vehicle id="106" depart="40.38">
        <route edges="56_4way_25to4way_18 53_4way_18to4way_17 50_4way_17to4way_16"/>
    </vehicle>
    <vehicle id="107" depart="40.76">
        <route edges="74_4way_39to4way_32 71_4way_32to4way_31 69_4way_31to4way_30"/>
    </vehicle>
    <vehicle id="108" depart="41.14">
        <route edges="41_4way_11to4way_10 42_4way_10to4way_17 54_4way_17to4way_24 63_4way_24to4way_31 72_4way_31to4way_38 35_4way_38to3way_45"/>
    </vehicle>
    <vehicle id="109" depart="41.52">
        <route edges="17_4way_26to3way_27 16_3way_27to3way_34"/>
    </vehicle>
    <vehicle id="110" depart="41.90">
        <route edges="22_3way_41to3way_34 16_3way_34to3way_27 12_3way_27to3way_20 4_3way_20to3way_13 6_3way_13to4way_12 44_4way_12to4way_11 41_4way_11to4way_10"/>
    </vehicle>
    <vehicle id="111" depart="42.28">
        <route edges="62_4way_24to4way_25 64_4way_25to4way_26"/>
    </vehicle>
    <vehicle id="112" depart="42.66">
        <route edges="28_3way_41to3way_47 36_3way_47to3way_46"/>
    </vehicle>
    <vehicle id="113" depart="43.04">
        <route edges="1_3way_2to3way_1 3_3way_1to4way_8 49_4way_8to4way_15 48_4way_15to4way_22 59_4way_22to4way_29"/>
    </vehicle>
    <vehicle id="114" depart="43.42">
        <route edges="8_3way_7to3way_14 7_3way_14to3way_21 14_3way_21to3way_28 19_3way_28to4way_29 67_4way_29to4way_30 69_4way_30to4way_31 71_4way_31to4way_32 73_4way_32to4way_33 23_4way_33to3way_34 22_3way_34to3way_41"/>
    </vehicle>
    <vehicle id="115" depart="43.80">
        <route edges="40_4way_8to3way_7 8_3way_7to3way_14 7_3way_14to3way_21 14_3way_21to3way_28"/>
    </vehicle>
    <vehicle id="116" depart="44.18">
        <route edges="51_4way_16to4way_23 61_4way_23to4way_30 70_4way_30to4way_37 33_4way_37to3way_44 32_3way_44to3way_45"/>
    </vehicle>
    <vehicle id="117" depart="44.57">
        <route edges="6_3way_13to4way_12 44_4way_12to4way_11 45_4way_11to4way_18 56_4way_18to4way_25 65_4way_25to4way_32"/>
    </vehicle>
    <vehicle id="118" depart="44.95">
        <route edges="6_3way_13to4way_12 44_4way_12to4way_11 41_4way_11to4way_10 43_4way_10to4way_9 80_4way_9to4way_8 49_4way_8to4way_15 48_4way_15to4way_22 59_4way_22to4way_29"/>
    </vehicle>
    <vehicle id="119" depart="45.33">
        <route edges="15_3way_21to4way_22 58_4way_22to4way_23 60_4way_23to4way_24"/>
    </vehicle>
    <vehicle id="120" depart="45.71">
        <route edges="23_3way_34to4way_33 73_4way_33to4way_32 65_4way_32to4way_25 56_4way_25to4way_18 45_4way_18to4way_11 41_4way_11to4way_10 43_4way_10to4way_9"/>
    </vehicle>
    <vehicle id="121" depart="46.09">
        <route edges="47_4way_15to4way_16 50_4way_16to4way_17 53_4way_17to4way_18 55_4way_18to4way_19 13_4way_19to3way_20"/>
    </vehicle>
    <vehicle id="122" depart="46.47">
        <route edges="64_4way_26to4way_25 62_4way_25to4way_24 60_4way_24to4way_23 58_4way_23to4way_22 15_4way_22to3way_21 14_3way_21to3way_28"/>
    </vehicle>
    <vehicle id="123" depart="46.85">
        <route edges="72_4way_31to4way_38"/>
    </vehicle>
    <vehicle id="124" depart="47.23">
        <route edges="27_3way_4to4way_11 44_4way_11to4way_12"/>
    </vehicle>
    <vehicle id="125" depart="47.61">
        <route edges="47_4way_16to4way_15 48_4way_15to4way_22 59_4way_22to4way_29 68_4way_29to4way_36"/>
    </vehicle>
    <vehicle id="126" depart="47.99">
        <route edges="32_3way_44to3way_45 34_3way_45to3way_46 36_3way_46to3way_47 38_3way_47to4way_40 75_4way_40to4way_33"/>
    </vehicle>
    <vehicle id="127" depart="48.37">
        <route edges="39_3way_5to4way_12 46_4way_12to4way_19 57_4way_19to4way_26 66_4way_26to4way_33 75_4way_33to4way_40 38_4way_40to3way_47"/>
    </vehicle>
    <vehicle id="128" depart="48.76">
        <route edges="46_4way_19to4way_12 39_4way_12to3way_5 26_3way_5to3way_4 20_3way_4to3way_3 10_3way_3to3way_2 1_3way_2to3way_1"/>
    </vehicle>
    <vehicle id="129" depart="49.14">
        <route edges="41_4way_11to4way_10"/>
    </vehicle>
    <vehicle id="130" depart="49.52">
        <route edges="51_4way_16to4way_23 61_4way_23to4way_30 70_4way_30to4way_37 33_4way_37to3way_44 32_3way_44to3way_45"/>
    </vehicle>
    <vehicle id="131" depart="49.90">
        <route edges="47_4way_15to4way_16 50_4way_16to4way_17 42_4way_17to4way_10 21_4way_10to3way_3"/>
    </vehicle>
    <vehicle id="132" depart="50.28">
        <route edges="79_4way_39to4way_40 75_4way_40to4way_33"/>
    </vehicle>
    <vehicle id="133" depart="50.66">
        <route edges="73_4way_33to4way_32 71_4way_32to4way_31 69_4way_31to4way_30 67_4way_30to4way_29 19_4way_29to3way_28 18_3way_28to3way_35"/>
    </vehicle>
    <vehicle id="134" depart="51.04">
        <route edges="66_4way_26to4way_33 75_4way_33to4way_40 38_4way_40to3way_47"/>
    </vehicle>
    <vehicle id="135" depart="51.42">
        <route edges="45_4way_11to4way_18 56_4way_18to4way_25 64_4way_25to4way_26"/>
    </vehicle>
    <vehicle id="136" depart="51.80">
        <route edges="74_4way_39to4way_32 71_4way_32to4way_31 69_4way_31to4way_30"/>
    </vehicle>
    <vehicle id="137" depart="52.18">
        <route edges="71_4way_32to4way_31 72_4way_31to4way_38 35_4way_38to3way_45 32_3way_45to3way_44"/>
    </vehicle>
    <vehicle id="138" depart="52.56">
        <route edges="3_3way_1to4way_8 49_4way_8to4way_15 48_4way_15to4way_22 58_4way_22to4way_23"/>
    </vehicle>
    <vehicle id="139" depart="52.95">
        <route edges="13_3way_20to4way_19 55_4way_19to4way_18 53_4way_18to4way_17 50_4way_17to4way_16 47_4way_16to4way_15 9_4way_15to3way_14 7_3way_14to3way_21 14_3way_21to3way_28 18_3way_28to3way_35"/>
    </vehicle>
    <vehicle id="140" depart="53.33">
        <route edges="47_4way_15to4way_16 50_4way_16to4way_17 53_4way_17to4way_18 55_4way_18to4way_19 57_4way_19to4way_26 66_4way_26to4way_33 75_4way_33to4way_40"/>
    </vehicle>
    <vehicle id="141" depart="53.71">
        <route edges="61_4way_30to4way_23 58_4way_23to4way_22"/>
    </vehicle>
    <vehicle id="142" depart="54.09">
        <route edges="13_3way_20to4way_19 55_4way_19to4way_18 53_4way_18to4way_17 50_4way_17to4way_16 47_4way_16to4way_15 9_4way_15to3way_14 7_3way_14to3way_21 14_3way_21to3way_28"/>
    </vehicle>
    <vehicle id="143" depart="54.47">
        <route edges="16_3way_34to3way_27 12_3way_27to3way_20 13_3way_20to4way_19 55_4way_19to4way_18"/>
    </vehicle>
    <vehicle id="144" depart="54.85">
        <route edges="38_3way_47to4way_40 75_4way_40to4way_33 73_4way_33to4way_32 71_4way_32to4way_31 69_4way_31to4way_30 67_4way_30to4way_29"/>
    </vehicle>
    <vehicle id="145" depart="55.23">
        <route edges="73_4way_32to4way_33 66_4way_33to4way_26 57_4way_26to4way_19 46_4way_19to4way_12 39_4way_12to3way_5"/>
    </vehicle>
    <vehicle id="146" depart="55.61">
        <route edges="78_4way_38to4way_39 79_4way_39to4way_40 75_4way_40to4way_33 66_4way_33to4way_26 57_4way_26to4way_19 46_4way_19to4way_12"/>
    </vehicle>
    <vehicle id="147" depart="55.99">
        <route edges="20_3way_4to3way_3 10_3way_3to3way_2 1_3way_2to3way_1 3_3way_1to4way_8 49_4way_8to4way_15 48_4way_15to4way_22 59_4way_22to4way_29 68_4way_29to4way_36 31_4way_36to3way_43"/>
    </vehicle>
    <vehicle id="148" depart="56.37">
        <route edges="36_3way_47to3way_46 34_3way_46to3way_45 32_3way_45to3way_44 30_3way_44to3way_43 24_3way_43to3way_35 18_3way_35to3way_28 14_3way_28to3way_21 7_3way_21to3way_14"/>
    </vehicle>
    <vehicle id="149" depart="56.75">
        <route edges="20_3way_3to3way_4 26_3way_4to3way_5 5_3way_5to3way_13"/>
    </vehicle>
    <vehicle id="150" depart="57.14">
        <route edges="3_3way_1to4way_8 49_4way_8to4way_15 48_4way_15to4way_22 58_4way_22to4way_23 60_4way_23to4way_24"/>
    </vehicle>
    <vehicle id="151" depart="57.52">
        <route edges="13_3way_20to4way_19 55_4way_19to4way_18 53_4way_18to4way_17 54_4way_17to4way_24 63_4way_24to4way_31 72_4way_31to4way_38"/>
    </vehicle>
    <vehicle id="152" depart="57.90">
        <route edges="26_3way_5to3way_4"/>
    </vehicle>
    <vehicle id="153" depart="58.28">
        <route edges="37_3way_46to4way_39 74_4way_39to4way_32 65_4way_32to4way_25 56_4way_25to4way_18 45_4way_18to4way_11 41_4way_11to4way_10"/>
    </vehicle>
    <vehicle id="154" depart="58.66">
        <route edges="80_4way_9to4way_8 40_4way_8to3way_7 8_3way_7to3way_14"/>
    </vehicle>
    <vehicle id="155" depart="59.04">
        <route edges="63_4way_24to4way_31 71_4way_31to4way_32"/>
    </vehicle>
    <vehicle id="156" depart="59.42">
        <route edges="6_3way_13to4way_12 44_4way_12to4way_11 41_4way_11to4way_10 42_4way_10to4way_17 54_4way_17to4way_24 63_4way_24to4way_31 72_4way_31to4way_38 35_4way_38to3way_45"/>
    </vehicle>
    <vehicle id="157" depart="59.80">
        <route edges="33_3way_44to4way_37 70_4way_37to4way_30 61_4way_30to4way_23 51_4way_23to4way_16 52_4way_16to4way_9 11_4way_9to3way_2 10_3way_2to3way_3"/>
    </vehicle>
    <vehicle id="158" depart="60.18">
        <route edges="49_4way_8to4way_15 48_4way_15to4way_22 59_4way_22to4way_29 68_4way_29to4way_36 31_4way_36to3way_43 30_3way_43to3way_44 32_3way_44to3way_45 34_3way_45to3way_46"/>
    </vehicle>
    <vehicle id="159" depart="60.56">
        <route edges="42_4way_17to4way_10"/>
    </vehicle>
    <vehicle id="160" depart="60.94">
        <route edges="14_3way_21to3way_28 18_3way_28to3way_35 24_3way_35to3way_43 30_3way_43to3way_44 32_3way_44to3way_45"/>
    </vehicle>
    <vehicle id="161" depart="61.33">
        <route edges="44_4way_11to4way_12 6_4way_12to3way_13 4_3way_13to3way_20 12_3way_20to3way_27 16_3way_27to3way_34"/>
    </vehicle>
    <vehicle id="162" depart="61.71">
        <route edges="42_4way_17to4way_10 21_4way_10to3way_3"/>
    </vehicle>
    <vehicle id="163" depart="62.09">
        <route edges="78_4way_38to4way_39 74_4way_39to4way_32 65_4way_32to4way_25 56_4way_25to4way_18 45_4way_18to4way_11"/>
    </vehicle>
    <vehicle id="164" depart="62.47">
        <route edges="18_3way_28to3way_35 24_3way_35to3way_43 30_3way_43to3way_44 32_3way_44to3way_45 34_3way_45to3way_46"/>
    </vehicle>
    <vehicle id="165" depart="62.85">
        <route edges="32_3way_45to3way_44 33_3way_44to4way_37 70_4way_37to4way_30 61_4way_30to4way_23 51_4way_23to4way_16"/>
    </vehicle>
    <vehicle id="166" depart="63.23">
        <route edges="23_3way_34to4way_33 73_4way_33to4way_32 71_4way_32to4way_31 69_4way_31to4way_30 67_4way_30to4way_29 19_4way_29to3way_28"/>
    </vehicle>
    <vehicle id="167" depart="63.61">
        <route edges="10_3way_3to3way_2 1_3way_2to3way_1 3_3way_1to4way_8"/>
    </vehicle>
    <vehicle id="168" depart="63.99">
        <route edges="27_3way_4to4way_11"/>
    </vehicle>
    <vehicle id="169" depart="64.37">
        <route edges="33_3way_44to4way_37 70_4way_37to4way_30 67_4way_30to4way_29"/>
    </vehicle>
    <vehicle id="170" depart="64.75">
        <route edges="66_4way_33to4way_26 57_4way_26to4way_19 46_4way_19to4way_12 44_4way_12to4way_11 41_4way_11to4way_10 43_4way_10to4way_9"/>
    </vehicle>
    <vehicle id="171" depart="65.13">
        <route edges="11_3way_2to4way_9 52_4way_9to4way_16 51_4way_16to4way_23 61_4way_23to4way_30 70_4way_30to4way_37"/>
    </vehicle>
    <vehicle id="172" depart="65.52">
        <route edges="48_4way_22to4way_15 49_4way_15to4way_8 40_4way_8to3way_7"/>
    </vehicle>
    <vehicle id="173" depart="65.90">
        <route edges="43_4way_10to4way_9 80_4way_9to4way_8 49_4way_8to4way_15 48_4way_15to4way_22 59_4way_22to4way_29 68_4way_29to4way_36"/>
    </vehicle>
    <vehicle id="174" depart="66.28">
        <route edges="6_3way_13to4way_12 44_4way_12to4way_11 41_4way_11to4way_10 42_4way_10to4way_17 54_4way_17to4way_24 63_4way_24to4way_31 72_4way_31to4way_38 35_4way_38to3way_45"/>
    </vehicle>
    <vehicle id="175" depart="66.66">