<routes xmlns:xsi="http://www.w3.org/2001/XMLSchema-instance" xsi:noNamespaceSchemaLocation="http://sumo.dlr.de/xsd/routes_file.xsd">
<trip id="0" depart="0.0" fromJunction="4way_12" toJunction="4way_26"/>
<trip id="1" depart="0.2631" fromJunction="4way_26" toJunction="4way_11"/>
<trip id="2" depart="0.5262" fromJunction="4way_27" toJunction="4way_17"/>
<trip id="3" depart="0.7893" fromJunction="4way_53" toJunction="4way_25"/>
<trip id="4" depart="1.0524" fromJunction="3way_8" toJunction="4way_38"/>
<trip id="5" depart="1.3155000000000001" fromJunction="4way_18" toJunction="4way_52"/>
<trip id="6" depart="1.5786" fromJunction="4way_22" toJunction="4way_42"/>
<trip id="7" depart="1.8417" fromJunction="3way_6" toJunction="3way_5"/>
<trip id="8" depart="2.1048" fromJunction="4way_21" toJunction="3way_2"/>
<trip id="9" depart="2.3679" fromJunction="4way_45" toJunction="4way_44"/>
<trip id="10" depart="2.6310000000000002" fromJunction="4way_52" toJunction="4way_46"/>
<trip id="11" depart="2.8941" fromJunction="4way_44" toJunction="4way_33"/>
<trip id="12" depart="3.1572" fromJunction="4way_27" toJunction="3way_23"/>
<trip id="13" depart="3.4203" fromJunction="4way_30" toJunction="3way_31"/>
<trip id="14" depart="3.6834" fromJunction="4way_9" toJunction="4way_18"/>
<trip id="15" depart="3.9465" fromJunction="4way_44" toJunction="3way_59"/>
<trip id="16" depart="4.2096" fromJunction="4way_42" toJunction="4way_33"/>
<trip id="17" depart="4.4727" fromJunction="4way_19" toJunction="3way_2"/>
<trip id="18" depart="4.7358" fromJunction="4way_19" toJunction="4way_11"/>
<trip id="19" depart="4.9989" fromJunction="4way_43" toJunction="4way_30"/>
<trip id="20" depart="5.2620000000000005" fromJunction="4way_25" toJunction="3way_24"/>
<trip id="21" depart="5.5251" fromJunction="3way_4" toJunction="4way_51"/>
<trip id="22" depart="5.7882" fromJunction="3way_23" toJunction="3way_62"/>
<trip id="23" depart="6.0513" fromJunction="3way_24" toJunction="3way_48"/>
<trip id="24" depart="6.3144" fromJunction="4way_25" toJunction="4way_42"/>
<trip id="25" depart="6.5775" fromJunction="3way_15" toJunction="4way_54"/>
<trip id="26" depart="6.8406" fromJunction="3way_39" toJunction="3way_62"/>
<trip id="27" depart="7.1037" fromJunction="3way_59" toJunction="4way_35"/>
<trip id="28" depart="7.3668" fromJunction="3way_60" toJunction="4way_33"/>
<trip id="29" depart="7.6299" fromJunction="3way_15" toJunction="3way_39"/>
<trip id="30" depart="7.893" fromJunction="3way_31" toJunction="4way_35"/>
<trip id="31" depart="8.1561" fromJunction="3way_16" toJunction="3way_55"/>
<trip id="32" depart="8.4192" fromJunction="3way_6" toJunction="4way_21"/>
<trip id="33" depart="8.6823" fromJunction="3way_6" toJunction="4way_29"/>
<trip id="34" depart="8.9454" fromJunction="4way_41" toJunction="4way_46"/>
<trip id="35" depart="9.2085" fromJunction="4way_11" toJunction="4way_46"/>
<trip id="36" depart="9.4716" fromJunction="3way_3" toJunction="4way_28"/>
<trip id="37" depart="9.7347" fromJunction="3way_23" toJunction="3way_58"/>
<trip id="38" depart="9.9978" fromJunction="3way_23" toJunction="3way_57"/>
<trip id="39" depart="10.2609" fromJunction="4way_9" toJunction="3way_40"/>
<trip id="40" depart="10.524000000000001" fromJunction="4way_51" toJunction="3way_4"/>
<trip id="41" depart="10.7871" fromJunction="3way_59" toJunction="4way_34"/>
<trip id="42" depart="11.0502" fromJunction="3way_6" toJunction="4way_18"/>
<trip id="43" depart="11.3133" fromJunction="4way_22" toJunction="4way_42"/>
<trip id="44" depart="11.5764" fromJunction="4way_43" toJunction="3way_40"/>
<trip id="45" depart="11.8395" fromJunction="4way_12" toJunction="3way_23"/>
<trip id="46" depart="12.1026" fromJunction="3way_47" toJunction="3way_57"/>
<trip id="47" depart="12.3657" fromJunction="3way_2" toJunction="4way_50"/>
<trip id="48" depart="12.6288" fromJunction="3way_1" toJunction="4way_21"/>
<trip id="49" depart="12.8919" fromJunction="3way_58" toJunction="4way_43"/>
<trip id="50" depart="13.155" fromJunction="4way_38" toJunction="4way_28"/>
<trip id="51" depart="13.4181" fromJunction="4way_42" toJunction="3way_60"/>
<trip id="52" depart="13.6812" fromJunction="4way_42" toJunction="4way_50"/>
<trip id="53" depart="13.9443" fromJunction="4way_38" toJunction="3way_61"/>
<trip id="54" depart="14.2074" fromJunction="4way_29" toJunction="4way_25"/>
<trip id="55" depart="14.4705" fromJunction="3way_57" toJunction="4way_51"/>
<trip id="56" depart="14.7336" fromJunction="3way_8" toJunction="4way_13"/>
<trip id="57" depart="14.9967" fromJunction="4way_42" toJunction="4way_45"/>
<trip id="58" depart="15.2598" fromJunction="4way_51" toJunction="4way_45"/>
<trip id="59" depart="15.5229" fromJunction="4way_10" toJunction="4way_20"/>
<trip id="60" depart="15.786" fromJunction="4way_27" toJunction="4way_38"/>
<trip id="61" depart="16.0491" fromJunction="4way_11" toJunction="4way_17"/>
<trip id="62" depart="16.3122" fromJunction="3way_48" toJunction="3way_2"/>
<trip id="63" depart="16.5753" fromJunction="3way_57" toJunction="4way_35"/>
<trip id="64" depart="16.8384" fromJunction="4way_17" toJunction="4way_19"/>
<trip id="65" depart="17.1015" fromJunction="3way_57" toJunction="3way_31"/>
<trip id="66" depart="17.3646" fromJunction="4way_50" toJunction="4way_42"/>
<trip id="67" depart="17.6277" fromJunction="4way_35" toJunction="4way_42"/>
<trip id="68" depart="17.8908" fromJunction="4way_17" toJunction="4way_35"/>
<trip id="69" depart="18.1539" fromJunction="3way_16" toJunction="4way_53"/>
<trip id="70" depart="18.417" fromJunction="4way_53" toJunction="4way_25"/>
<trip id="71" depart="18.6801" fromJunction="4way_12" toJunction="4way_13"/>
<trip id="72" depart="18.9432" fromJunction="4way_22" toJunction="3way_15"/>
<trip id="73" depart="19.2063" fromJunction="4way_54" toJunction="4way_12"/>
<trip id="74" depart="19.4694" fromJunction="4way_45" toJunction="3way_31"/>
<trip id="75" depart="19.7325" fromJunction="4way_11" toJunction="3way_39"/>
<trip id="76" depart="19.9956" fromJunction="4way_29" toJunction="3way_23"/>
<trip id="77" depart="20.2587" fromJunction="4way_42" toJunction="4way_13"/>
<trip id="78" depart="20.5218" fromJunction="3way_5" toJunction="4way_9"/>
<trip id="79" depart="20.7849" fromJunction="4way_33" toJunction="4way_51"/>
<trip id="80" depart="21.048000000000002" fromJunction="4way_37" toJunction="4way_20"/>
<trip id="81" depart="21.3111" fromJunction="4way_37" toJunction="4way_46"/>
<trip id="82" depart="21.5742" fromJunction="3way_24" toJunction="3way_1"/>
<trip id="83" depart="21.8373" fromJunction="3way_47" toJunction="4way_20"/>
<trip id="84" depart="22.1004" fromJunction="3way_4" toJunction="4way_18"/>
<trip id="85" depart="22.3635" fromJunction="3way_2" toJunction="3way_55"/>
<trip id="86" depart="22.6266" fromJunction="3way_61" toJunction="4way_52"/>
<trip id="87" depart="22.8897" fromJunction="4way_22" toJunction="3way_32"/>
<trip id="88" depart="23.1528" fromJunction="3way_2" toJunction="4way_12"/>
<trip id="89" depart="23.4159" fromJunction="4way_19" toJunction="3way_39"/>
<trip id="90" depart="23.679" fromJunction="3way_60" toJunction="4way_42"/>
<trip id="91" depart="23.9421" fromJunction="4way_11" toJunction="4way_30"/>
<trip id="92" depart="24.2052" fromJunction="4way_50" toJunction="4way_26"/>
<trip id="93" depart="24.4683" fromJunction="3way_48" toJunction="4way_20"/>
<trip id="94" depart="24.7314" fromJunction="3way_62" toJunction="3way_8"/>
<trip id="95" depart="24.9945" fromJunction="4way_30" toJunction="3way_55"/>
<trip id="96" depart="25.2576" fromJunction="4way_49" toJunction="4way_28"/>
<trip id="97" depart="25.5207" fromJunction="3way_59" toJunction="3way_61"/>
<trip id="98" depart="25.7838" fromJunction="4way_25" toJunction="3way_4"/>
<trip id="99" depart="26.0469" fromJunction="4way_51" toJunction="3way_48"/>
<trip id="100" depart="26.31" fromJunction="3way_47" toJunction="3way_16"/>
<trip id="101" depart="26.5731" fromJunction="3way_5" toJunction="3way_2"/>
<trip id="102" depart="26.8362" fromJunction="4way_33" toJunction="4way_43"/>
<trip id="103" depart="27.0993" fromJunction="4way_53" toJunction="4way_26"/>
<trip id="104" depart="27.3624" fromJunction="3way_61" toJunction="4way_54"/>
<trip id="105" depart="27.6255" fromJunction="3way_59" toJunction="4way_35"/>
<trip id="106" depart="27.8886" fromJunction="4way_36" toJunction="3way_2"/>
<trip id="107" depart="28.1517" fromJunction="3way_8" toJunction="3way_40"/>
<trip id="108" depart="28.4148" fromJunction="4way_21" toJunction="4way_50"/>
<trip id="109" depart="28.6779" fromJunction="4way_45" toJunction="4way_19"/>
<trip id="110" depart="28.941" fromJunction="4way_52" toJunction="3way_58"/>
<trip id="111" depart="29.2041" fromJunction="4way_38" toJunction="3way_55"/>
<trip id="112" depart="29.4672" fromJunction="3way_62" toJunction="4way_51"/>
<trip id="113" depart="29.7303" fromJunction="4way_20" toJunction="4way_30"/>
<trip id="114" depart="29.9934" fromJunction="3way_62" toJunction="3way_59"/>
<trip id="115" depart="30.2565" fromJunction="3way_2" toJunction="4way_18"/>
<trip id="116" depart="30.5196" fromJunction="4way_17" toJunction="3way_62"/>
<trip id="117" depart="30.7827" fromJunction="4way_33" toJunction="3way_16"/>
<trip id="118" depart="31.0458" fromJunction="4way_50" toJunction="3way_58"/>
<trip id="119" depart="31.3089" fromJunction="3way_23" toJunction="4way_37"/>
<trip id="120" depart="31.572" fromJunction="3way_23" toJunction="4way_18"/>
<trip id="121" depart="31.8351" fromJunction="3way_8" toJunction="4way_20"/>
<trip id="122" depart="32.0982" fromJunction="3way_47" toJunction="4way_34"/>
<trip id="123" depart="32.3613" fromJunction="4way_49" toJunction="3way_31"/>
<trip id="124" depart="32.6244" fromJunction="4way_30" toJunction="3way_24"/>
<trip id="125" depart="32.8875" fromJunction="4way_28" toJunction="4way_36"/>
<trip id="126" depart="33.1506" fromJunction="3way_6" toJunction="4way_14"/>
<trip id="127" depart="33.4137" fromJunction="4way_50" toJunction="4way_34"/>
<trip id="128" depart="33.6768" fromJunction="3way_57" toJunction="4way_38"/>
<trip id="129" depart="33.9399" fromJunction="3way_15" toJunction="3way_60"/>
<trip id="130" depart="34.203" fromJunction="4way_22" toJunction="3way_1"/>
<trip id="131" depart="34.4661" fromJunction="4way_52" toJunction="4way_43"/>
<trip id="132" depart="34.7292" fromJunction="4way_50" toJunction="3way_58"/>
<trip id="133" depart="34.9923" fromJunction="4way_49" toJunction="3way_4"/>
<trip id="134" depart="35.2554" fromJunction="4way_45" toJunction="4way_46"/>
<trip id="135" depart="35.5185" fromJunction="4way_38" toJunction="3way_32"/>
<trip id="136" depart="35.7816" fromJunction="4way_30" toJunction="3way_61"/>
<trip id="137" depart="36.0447" fromJunction="4way_52" toJunction="4way_30"/>
<trip id="138" depart="36.3078" fromJunction="4way_45" toJunction="4way_19"/>
<trip id="139" depart="36.5709" fromJunction="4way_29" toJunction="3way_57"/>
<trip id="140" depart="36.834" fromJunction="3way_1" toJunction="4way_19"/>
<trip id="141" depart="37.0971" fromJunction="3way_31" toJunction="3way_32"/>
<trip id="142" depart="37.3602" fromJunction="4way_41" toJunction="4way_46"/>
<trip id="143" depart="37.6233" fromJunction="4way_27" toJunction="4way_49"/>
<trip id="144" depart="37.8864" fromJunction="3way_31" toJunction="3way_16"/>
<trip id="145" depart="38.1495" fromJunction="3way_55" toJunction="4way_21"/>
<trip id="146" depart="38.4126" fromJunction="3way_61" toJunction="4way_10"/>
<trip id="147" depart="38.6757" fromJunction="4way_37" toJunction="3way_6"/>
<trip id="148" depart="38.9388" fromJunction="4way_38" toJunction="4way_46"/>
<trip id="149" depart="39.2019" fromJunction="4way_44" toJunction="4way_14"/>
<trip id="150" depart="39.465" fromJunction="3way_5" toJunction="3way_40"/>
<trip id="151" depart="39.7281" fromJunction="3way_61" toJunction="4way_9"/>
<trip id="152" depart="39.9912" fromJunction="3way_4" toJunction="3way_23"/>
<trip id="153" depart="40.2543" fromJunction="3way_1" toJunction="4way_20"/>
<trip id="154" depart="40.5174" fromJunction="3way_31" toJunction="4way_44"/>
<trip id="155" depart="40.7805" fromJunction="3way_6" toJunction="3way_5"/>
<trip id="156" depart="41.0436" fromJunction="3way_60" toJunction="4way_43"/>
<trip id="157" depart="41.3067" fromJunction="4way_34" toJunction="4way_17"/>
<trip id="158" depart="41.5698" fromJunction="4way_20" toJunction="4way_37"/>
<trip id="159" depart="41.8329" fromJunction="3way_23" toJunction="3way_58"/>
<trip id="160" depart="42.096000000000004" fromJunction="3way_48" toJunction="3way_4"/>
<trip id="161" depart="42.3591" fromJunction="4way_33" toJunction="3way_59"/>
<trip id="162" depart="42.6222" fromJunction="4way_51" toJunction="4way_43"/>
<trip id="163" depart="42.8853" fromJunction="3way_16" toJunction="3way_57"/>
<trip id="164" depart="43.1484" fromJunction="4way_52" toJunction="3way_47"/>
<trip id="165" depart="43.4115" fromJunction="4way_51" toJunction="3way_4"/>
<trip id="166" depart="43.6746" fromJunction="3way_16" toJunction="3way_59"/>
<trip id="167" depart="43.9377" fromJunction="3way_58" toJunction="4way_50"/>
<trip id="168" depart="44.2008" fromJunction="3way_55" toJunction="3way_16"/>
<trip id="169" depart="44.4639" fromJunction="3way_3" toJunction="4way_33"/>
<trip id="170" depart="44.727" fromJunction="3way_5" toJunction="4way_52"/>
<trip id="171" depart="44.9901" fromJunction="3way_48" toJunction="4way_18"/>
<trip id="172" depart="45.2532" fromJunction="4way_38" toJunction="4way_42"/>
<trip id="173" depart="45.5163" fromJunction="3way_3" toJunction="4way_27"/>
<trip id="174" depart="45.7794" fromJunction="4way_10" toJunction="4way_17"/>
<trip id="175" depart="46.0425" fromJunction="4way_43" toJunction="4way_26"/>
<trip id="176" depart="46.3056" fromJunction="3way_23" toJunction="3way_58"/>
<trip id="177" depart="46.5687" fromJunction="4way_38" toJunction="3way_8"/>
<trip id="178" depart="46.8318" fromJunction="4way_14" toJunction="3way_55"/>
<trip id="179" depart="47.0949" fromJunction="4way_33" toJunction="4way_26"/>
<trip id="180" depart="47.358" fromJunction="4way_33" toJunction="4way_45"/>
<trip id="181" depart="47.6211" fromJunction="3way_8" toJunction="4way_20"/>
<trip id="182" depart="47.8842" fromJunction="4way_51" toJunction="4way_14"/>
<trip id="183" depart="48.1473" fromJunction="3way_40" toJunction="4way_51"/>
<trip id="184" depart="48.4104" fromJunction="4way_27" toJunction="4way_36"/>
<trip id="185" depart="48.6735" fromJunction="3way_39" toJunction="3way_60"/>
<trip id="186" depart="48.9366" fromJunction="4way_38" toJunction="4way_52"/>
<trip id="187" depart="49.1997" fromJunction="4way_50" toJunction="4way_33"/>
<trip id="188" depart="49.4628" fromJunction="4way_33" toJunction="4way_37"/>
<trip id="189" depart="49.7259" fromJunction="4way_42" toJunction="4way_38"/>
<trip id="190" depart="49.989" fromJunction="4way_14" toJunction="4way_21"/>
<trip id="191" depart="50.2521" fromJunction="3way_39" toJunction="4way_13"/>
<trip id="192" depart="50.5152" fromJunction="3way_8" toJunction="4way_19"/>
<trip id="193" depart="50.7783" fromJunction="4way_17" toJunction="3way_4"/>
<trip id="194" depart="51.0414" fromJunction="4way_29" toJunction="3way_59"/>
<trip id="195" depart="51.3045" fromJunction="4way_38" toJunction="3way_2"/>
<trip id="196" depart="51.5676" fromJunction="3way_55" toJunction="3way_1"/>
<trip id="197" depart="51.8307" fromJunction="4way_22" toJunction="4way_9"/>
<trip id="198" depart="52.0938" fromJunction="4way_30" toJunction="3way_6"/>
<trip id="199" depart="52.3569" fromJunction="4way_33" toJunction="4way_45"/>
<trip id="200" depart="52.62" fromJunction="3way_61" toJunction="3way_40"/>
<trip id="201" depart="52.8831" fromJunction="3way_2" toJunction="4way_11"/>
<trip id="202" depart="53.1462" fromJunction="4way_17" toJunction="3way_1"/>
<trip id="203" depart="53.4093" fromJunction="3way_59" toJunction="3way_5"/>
<trip id="204" depart="53.6724" fromJunction="3way_59" toJunction="3way_61"/>
<trip id="205" depart="53.9355" fromJunction="3way_1" toJunction="3way_23"/>
<trip id="206" depart="54.1986" fromJunction="4way_19" toJunction="3way_15"/>
<trip id="207" depart="54.4617" fromJunction="4way_54" toJunction="4way_46"/>
<trip id="208" depart="54.7248" fromJunction="3way_39" toJunction="4way_9"/>
<trip id="209" depart="54.9879" fromJunction="4way_49" toJunction="4way_27"/>
<trip id="210" depart="55.251" fromJunction="3way_4" toJunction="4way_54"/>
<trip id="211" depart="55.5141" fromJunction="3way_57" toJunction="4way_44"/>
<trip id="212" depart="55.7772" fromJunction="4way_35" toJunction="3way_60"/>
<trip id="213" depart="56.0403" fromJunction="4way_35" toJunction="3way_60"/>
<trip id="214" depart="56.3034" fromJunction="4way_17" toJunction="4way_18"/>
<trip id="215" depart="56.5665" fromJunction="3way_57" toJunction="4way_34"/>
<trip id="216" depart="56.8296" fromJunction="4way_9" toJunction="4way_12"/>
<trip id="217" depart="57.0927" fromJunction="4way_21" toJunction="3way_24"/>
<trip id="218" depart="57.3558" fromJunction="3way_3" toJunction="4way_22"/>
<trip id="219" depart="57.618900000000004" fromJunction="3way_32" toJunction="3way_61"/>
<trip id="220" depart="57.882" fromJunction="4way_54" toJunction="4way_13"/>
<trip id="221" depart="58.1451" fromJunction="4way_14" toJunction="4way_46"/>
<trip id="222" depart="58.4082" fromJunction="4way_54" toJunction="3way_57"/>
<trip id="223" depart="58.6713" fromJunction="3way_15" toJunction="3way_60"/>
<trip id="224" depart="58.9344" fromJunction="3way_60" toJunction="4way_38"/>
<trip id="225" depart="59.1975" fromJunction="3way_4" toJunction="4way_51"/>
<trip id="226" depart="59.4606" fromJunction="4way_45" toJunction="4way_20"/>
<trip id="227" depart="59.7237" fromJunction="3way_16" toJunction="3way_58"/>
<trip id="228" depart="59.9868" fromJunction="4way_28" toJunction="3way_16"/>
<trip id="229" depart="60.2499" fromJunction="3way_47" toJunction="3way_60"/>
<trip id="230" depart="60.513" fromJunction="3way_48" toJunction="4way_25"/>
<trip id="231" depart="60.7761" fromJunction="3way_60" toJunction="4way_29"/>
<trip id="232" depart="61.0392" fromJunction="4way_30" toJunction="4way_10"/>
<trip id="233" depart="61.3023" fromJunction="4way_45" toJunction="4way_27"/>
<trip id="234" depart="61.5654" fromJunction="4way_36" toJunction="4way_30"/>
<trip id="235" depart="61.8285" fromJunction="4way_46" toJunction="4way_51"/>
<trip id="236" depart="62.0916" fromJunction="4way_33" toJunction="4way_54"/>
<trip id="237" depart="62.3547" fromJunction="3way_57" toJunction="3way_5"/>
<trip id="238" depart="62.6178" fromJunction="4way_17" toJunction="3way_39"/>
<trip id="239" depart="62.8809" fromJunction="4way_11" toJunction="3way_23"/>
<trip id="240" depart="63.144" fromJunction="4way_53" toJunction="3way_16"/>
<trip id="241" depart="63.4071" fromJunction="4way_26" toJunction="4way_46"/>
<trip id="242" depart="63.6702" fromJunction="4way_50" toJunction="3way_58"/>
<trip id="243" depart="63.9333" fromJunction="4way_9" toJunction="4way_53"/>
<trip id="244" depart="64.1964" fromJunction="3way_58" toJunction="4way_34"/>
<trip id="245" depart="64.4595" fromJunction="4way_9" toJunction="4way_33"/>
<trip id="246" depart="64.7226" fromJunction="4way_10" toJunction="3way_60"/>
<trip id="247" depart="64.9857" fromJunction="3way_16" toJunction="3way_48"/>
<trip id="248" depart="65.2488" fromJunction="4way_36" toJunction="4way_18"/>
<trip id="249" depart="65.5119" fromJunction="4way_22" toJunction="3way_32"/>
<trip id="250" depart="65.775" fromJunction="3way_3" toJunction="4way_37"/>
<trip id="251" depart="66.0381" fromJunction="4way_25" toJunction="3way_59"/>
<trip id="252" depart="66.3012" fromJunction="3way_32" toJunction="3way_15"/>
<trip id="253" depart="66.5643" fromJunction="4way_43" toJunction="4way_28"/>
<trip id="254" depart="66.8274" fromJunction="4way_12" toJunction="4way_19"/>
<trip id="255" depart="67.0905" fromJunction="3way_32" toJunction="3way_62"/>
<trip id="256" depart="67.3536" fromJunction="4way_45" toJunction="4way_43"/>
<trip id="257" depart="67.6167" fromJunction="3way_58" toJunction="4way_26"/>
<trip id="258" depart="67.8798" fromJunction="4way_12" toJunction="3way_2"/>
<trip id="259" depart="68.1429" fromJunction="3way_16" toJunction="3way_1"/>
<trip id="260" depart="68.406" fromJunction="4way_22" toJunction="4way_18"/>
<trip id="261" depart="68.6691" fromJunction="4way_9" toJunction="3way_6"/>
<trip id="262" depart="68.9322" fromJunction="3way_32" toJunction="3way_2"/>
<trip id="263" depart="69.1953" fromJunction="3way_58" toJunction="4way_19"/>
<trip id="264" depart="69.4584" fromJunction="3way_15" toJunction="3way_62"/>
<trip id="265" depart="69.7215" fromJunction="4way_51" toJunction="4way_42"/>
<trip id="266" depart="69.9846" fromJunction="4way_30" toJunction="4way_43"/>
<trip id="267" depart="70.2477" fromJunction="4way_27" toJunction="3way_1"/>
<trip id="268" depart="70.5108" fromJunction="4way_50" toJunction="4way_11"/>
<trip id="269" depart="70.7739" fromJunction="3way_2" toJunction="4way_38"/>
<trip id="270" depart="71.037" fromJunction="4way_13" toJunction="4way_51"/>
<trip id="271" depart="71.3001" fromJunction="3way_32" toJunction="4way_10"/>
<trip id="272" depart="71.5632" fromJunction="3way_6" toJunction="4way_52"/>
<trip id="273" depart="71.8263" fromJunction="4way_18" toJunction="4way_25"/>
<trip id="274" depart="72.0894" fromJunction="3way_6" toJunction="4way_51"/>
<trip id="275" depart="72.3525" fromJunction="4way_9" toJunction="3way_61"/>
<trip id="276" depart="72.6156" fromJunction="4way_53" toJunction="4way_19"/>
<trip id="277" depart="72.8787" fromJunction="3way_31" toJunction="4way_19"/>
<trip id="278" depart="73.1418" fromJunction="4way_45" toJunction="4way_46"/>
<trip id="279" depart="73.4049" fromJunction="4way_22" toJunction="4way_10"/>
<trip id="280" depart="73.668" fromJunction="4way_22" toJunction="4way_26"/>
<trip id="281" depart="73.9311" fromJunction="4way_46" toJunction="4way_21"/>
<trip id="282" depart="74.1942" fromJunction="3way_3" toJunction="4way_22"/>
<trip id="283" depart="74.4573" fromJunction="3way_8" toJunction="3way_47"/>
<trip id="284" depart="74.7204" fromJunction="3way_48" toJunction="4way_38"/>
<trip id="285" depart="74.9835" fromJunction="4way_53" toJunction="3way_39"/>
<trip id="286" depart="75.2466" fromJunction="4way_14" toJunction="4way_25"/>
<trip id="287" depart="75.5097" fromJunction="4way_35" toJunction="3way_39"/>
<trip id="288" depart="75.7728" fromJunction="3way_5" toJunction="4way_25"/>
<trip id="289" depart="76.0359" fromJunction="3way_60" toJunction="4way_51"/>
<trip id="290" depart="76.299" fromJunction="3way_4" toJunction="3way_3"/>
<trip id="291" depart="76.5621" fromJunction="4way_14" toJunction="3way_4"/>
<trip id="292" depart="76.8252" fromJunction="4way_53" toJunction="4way_28"/>
<trip id="293" depart="77.0883" fromJunction="4way_18" toJunction="4way_43"/>
<trip id="294" depart="77.3514" fromJunction="4way_54" toJunction="3way_48"/>
<trip id="295" depart="77.6145" fromJunction="4way_41" toJunction="3way_24"/>
<trip id="296" depart="77.8776" fromJunction="4way_46" toJunction="3way_16"/>
<trip id="297" depart="78.1407" fromJunction="3way_40" toJunction="3way_47"/>
<trip id="298" depart="78.4038" fromJunction="3way_4" toJunction="4way_43"/>
<trip id="299" depart="78.6669" fromJunction="4way_41" toJunction="4way_11"/>
<trip id="300" depart="78.93" fromJunction="3way_60" toJunction="3way_57"/>
<trip id="301" depart="79.1931" fromJunction="3way_16" toJunction="4way_10"/>
<trip id="302" depart="79.4562" fromJunction="3way_32" toJunction="4way_33"/>
<trip id="303" depart="79.7193" fromJunction="3way_31" toJunction="4way_46"/>
<trip id="304" depart="79.9824" fromJunction="3way_32" toJunction="3way_6"/>
<trip id="305" depart="80.2455" fromJunction="4way_35" toJunction="4way_50"/>
<trip id="306" depart="80.5086" fromJunction="4way_54" toJunction="3way_8"/>
<trip id="307" depart="80.7717" fromJunction="4way_20" toJunction="3way_24"/>
<trip id="308" depart="81.0348" fromJunction="4way_13" toJunction="4way_27"/>
<trip id="309" depart="81.2979" fromJunction="4way_53" toJunction="4way_46"/>
<trip id="310" depart="81.561" fromJunction="4way_51" toJunction="4way_36"/>
<trip id="311" depart="81.8241" fromJunction="3way_31" toJunction="3way_32"/>
<trip id="312" depart="82.0872" fromJunction="3way_60" toJunction="3way_4"/>
<trip id="313" depart="82.3503" fromJunction="4way_18" toJunction="4way_17"/>
<trip id="314" depart="82.6134" fromJunction="4way_38" toJunction="4way_44"/>
<trip id="315" depart="82.87650000000001" fromJunction="3way_15" toJunction="3way_23"/>
<trip id="316" depart="83.1396" fromJunction="4way_28" toJunction="4way_50"/>
<trip id="317" depart="83.4027" fromJunction="4way_30" toJunction="4way_29"/>
<trip id="318" depart="83.6658" fromJunction="3way_8" toJunction="4way_54"/>
<trip id="319" depart="83.9289" fromJunction="3way_31" toJunction="3way_16"/>
<trip id="320" depart="84.19200000000001" fromJunction="4way_35" toJunction="4way_51"/>
<trip id="321" depart="84.4551" fromJunction="3way_6" toJunction="4way_37"/>
<trip id="322" depart="84.7182" fromJunction="4way_42" toJunction="4way_49"/>
<trip id="323" depart="84.9813" fromJunction="3way_47" toJunction="3way_60"/>
<trip id="324" depart="85.2444" fromJunction="3way_4" toJunction="4way_37"/>
<trip id="325" depart="85.5075" fromJunction="3way_15" toJunction="4way_41"/>
<trip id="326" depart="85.7706" fromJunction="4way_46" toJunction="4way_33"/>
<trip id="327" depart="86.0337" fromJunction="4way_37" toJunction="4way_17"/>
<trip id="328" depart="86.2968" fromJunction="3way_58" toJunction="3way_23"/>
<trip id="329" depart="86.5599" fromJunction="3way_8" toJunction="4way_9"/>
<trip id="330" depart="86.823" fromJunction="3way_32" toJunction="4way_43"/>
<trip id="331" depart="87.0861" fromJunction="4way_27" toJunction="4way_12"/>
<trip id="332" depart="87.3492" fromJunction="4way_17" toJunction="3way_8"/>
<trip id="333" depart="87.6123" fromJunction="3way_5" toJunction="4way_11"/>
<trip id="334" depart="87.8754" fromJunction="4way_35" toJunction="4way_21"/>
<trip id="335" depart="88.1385" fromJunction="4way_26" toJunction="4way_20"/>
<trip id="336" depart="88.4016" fromJunction="4way_9" toJunction="3way_15"/>
<trip id="337" depart="88.6647" fromJunction="3way_40" toJunction="4way_9"/>
<trip id="338" depart="88.9278" fromJunction="4way_28" toJunction="3way_2"/>
<trip id="339" depart="89.1909" fromJunction="4way_11" toJunction="3way_15"/>
<trip id="340" depart="89.454" fromJunction="4way_27" toJunction="4way_12"/>
<trip id="341" depart="89.7171" fromJunction="3way_15" toJunction="4way_38"/>
<trip id="342" depart="89.9802" fromJunction="3way_2" toJunction="4way_45"/>
<trip id="343" depart="90.2433" fromJunction="4way_9" toJunction="4way_26"/>
<trip id="344" depart="90.5064" fromJunction="3way_24" toJunction="4way_18"/>
<trip id="345" depart="90.7695" fromJunction="3way_2" toJunction="3way_55"/>
<trip id="346" depart="91.0326" fromJunction="4way_29" toJunction="4way_18"/>
<trip id="347" depart="91.2957" fromJunction="3way_61" toJunction="3way_16"/>
<trip id="348" depart="91.5588" fromJunction="3way_6" toJunction="3way_5"/>
<trip id="349" depart="91.8219" fromJunction="3way_15" toJunction="3way_61"/>
<trip id="350" depart="92.085" fromJunction="3way_4" toJunction="3way_59"/>
<trip id="351" depart="92.3481" fromJunction="4way_37" toJunction="3way_4"/>
<trip id="352" depart="92.6112" fromJunction="4way_34" toJunction="3way_39"/>
<trip id="353" depart="92.8743" fromJunction="4way_33" toJunction="4way_44"/>
<trip id="354" depart="93.1374" fromJunction="3way_55" toJunction="3way_39"/>
<trip id="355" depart="93.4005" fromJunction="4way_18" toJunction="4way_17"/>
<trip id="356" depart="93.6636" fromJunction="4way_44" toJunction="3way_32"/>
<trip id="357" depart="93.9267" fromJunction="4way_22" toJunction="4way_36"/>
<trip id="358" depart="94.1898" fromJunction="4way_53" toJunction="3way_2"/>
<trip id="359" depart="94.4529" fromJunction="4way_45" toJunction="3way_8"/>
<trip id="360" depart="94.716" fromJunction="4way_54" toJunction="4way_51"/>
<trip id="361" depart="94.9791" fromJunction="3way_24" toJunction="4way_36"/>
<trip id="362" depart="95.2422" fromJunction="3way_16" toJunction="4way_10"/>
<trip id="363" depart="95.5053" fromJunction="3way_59" toJunction="3way_24"/>
<trip id="364" depart="95.7684" fromJunction="4way_43" toJunction="4way_49"/>
<trip id="365" depart="96.0315" fromJunction="4way_18" toJunction="3way_58"/>
<trip id="366" depart="96.2946" fromJunction="3way_39" toJunction="3way_23"/>
<trip id="367" depart="96.5577" fromJunction="4way_46" toJunction="3way_3"/>
<trip id="368" depart="96.8208" fromJunction="3way_47" toJunction="3way_1"/>
<trip id="369" depart="97.0839" fromJunction="3way_5" toJunction="4way_11"/>
<trip id="370" depart="97.347" fromJunction="4way_20" toJunction="4way_45"/>
<trip id="371" depart="97.6101" fromJunction="4way_10" toJunction="4way_38"/>
<trip id="372" depart="97.8732" fromJunction="4way_26" toJunction="3way_48"/>
<trip id="373" depart="98.1363" fromJunction="4way_18" toJunction="4way_22"/>
<trip id="374" depart="98.3994" fromJunction="4way_45" toJunction="3way_58"/>
<trip id="375" depart="98.6625" fromJunction="3way_1" toJunction="3way_16"/>
<trip id="376" depart="98.9256" fromJunction="3way_40" toJunction="3way_60"/>
<trip id="377" depart="99.1887" fromJunction="4way_33" toJunction="4way_37"/>
<trip id="378" depart="99.4518" fromJunction="3way_32" toJunction="4way_25"/>
<trip id="379" depart="99.7149" fromJunction="4way_30" toJunction="4way_45"/>
<trip id="380" depart="99.978" fromJunction="3way_16" toJunction="4way_54"/>
<trip id="381" depart="100.2411" fromJunction="4way_52" toJunction="4way_38"/>
<trip id="382" depart="100.5042" fromJunction="3way_60" toJunction="4way_43"/>
<trip id="383" depart="100.7673" fromJunction="3way_39" toJunction="3way_62"/>
<trip id="384" depart="101.0304" fromJunction="3way_57" toJunction="4way_22"/>