<routes xmlns:xsi="http://www.w3.org/2001/XMLSchema-instance" xsi:noNamespaceSchemaLocation="http://sumo.dlr.de/xsd/routes_file.xsd">
<trip id="0" depart="0.0" fromJunction="4way_55" toJunction="4way_53"/>
<trip id="1" depart="0.56" fromJunction="4way_53" toJunction="4way_24"/>
<trip id="2" depart="1.12" fromJunction="4way_74" toJunction="4way_12"/>
<trip id="3" depart="1.6800000000000002" fromJunction="4way_67" toJunction="4way_32"/>
<trip id="4" depart="2.24" fromJunction="4way_51" toJunction="4way_58"/>
<trip id="5" depart="2.8000000000000003" fromJunction="4way_33" toJunction="4way_56"/>
<trip id="6" depart="3.3600000000000003" fromJunction="4way_18" toJunction="4way_73"/>
<trip id="7" depart="3.9200000000000004" fromJunction="3way_19" toJunction="3way_7"/>
<trip id="8" depart="4.48" fromJunction="4way_86" toJunction="3way_2"/>
<trip id="9" depart="5.040000000000001" fromJunction="4way_47" toJunction="4way_36"/>
<trip id="10" depart="5.6000000000000005" fromJunction="4way_56" toJunction="4way_68"/>
<trip id="11" depart="6.16" fromJunction="4way_36" toJunction="4way_52"/>
<trip id="12" depart="6.720000000000001" fromJunction="4way_64" toJunction="3way_49"/>
<trip id="13" depart="7.280000000000001" fromJunction="4way_38" toJunction="3way_69"/>
<trip id="14" depart="7.840000000000001" fromJunction="4way_81" toJunction="4way_33"/>
<trip id="15" depart="8.4" fromJunction="4way_36" toJunction="3way_70"/>
<trip id="16" depart="8.96" fromJunction="4way_73" toJunction="4way_42"/>
<trip id="17" depart="9.520000000000001" fromJunction="4way_44" toJunction="3way_2"/>
<trip id="18" depart="10.080000000000002" fromJunction="4way_44" toJunction="4way_34"/>
<trip id="19" depart="10.64" fromJunction="4way_25" toJunction="4way_38"/>
<trip id="20" depart="11.200000000000001" fromJunction="4way_22" toJunction="4way_31"/>
<trip id="21" depart="11.760000000000002" fromJunction="3way_6" toJunction="4way_35"/>
<trip id="22" depart="12.32" fromJunction="3way_59" toJunction="3way_94"/>
<trip id="23" depart="12.88" fromJunction="4way_31" toJunction="3way_20"/>
<trip id="24" depart="13.440000000000001" fromJunction="4way_32" toJunction="4way_73"/>
<trip id="25" depart="14.000000000000002" fromJunction="3way_29" toJunction="4way_78"/>
<trip id="26" depart="14.560000000000002" fromJunction="3way_89" toJunction="3way_94"/>
<trip id="27" depart="15.120000000000001" fromJunction="3way_80" toJunction="4way_74"/>
<trip id="28" depart="15.680000000000001" fromJunction="3way_91" toJunction="4way_52"/>
<trip id="29" depart="16.240000000000002" fromJunction="3way_39" toJunction="3way_89"/>
<trip id="30" depart="16.8" fromJunction="3way_69" toJunction="4way_84"/>
<trip id="31" depart="17.360000000000003" fromJunction="4way_41" toJunction="3way_96"/>
<trip id="32" depart="17.92" fromJunction="3way_29" toJunction="4way_76"/>
<trip id="33" depart="18.48" fromJunction="3way_29" toJunction="4way_17"/>
<trip id="34" depart="19.040000000000003" fromJunction="4way_52" toJunction="4way_68"/>
<trip id="35" depart="19.6" fromJunction="4way_34" toJunction="4way_68"/>
<trip id="36" depart="20.160000000000004" fromJunction="3way_4" toJunction="4way_75"/>
<trip id="37" depart="20.720000000000002" fromJunction="3way_49" toJunction="3way_50"/>
<trip id="38" depart="21.28" fromJunction="3way_49" toJunction="3way_40"/>
<trip id="39" depart="21.840000000000003" fromJunction="4way_81" toJunction="3way_20"/>
<trip id="40" depart="22.400000000000002" fromJunction="4way_35" toJunction="3way_7"/>
<trip id="41" depart="22.96" fromJunction="3way_70" toJunction="4way_73"/>
<trip id="42" depart="23.520000000000003" fromJunction="3way_29" toJunction="4way_33"/>
<trip id="43" depart="24.080000000000002" fromJunction="4way_28" toJunction="4way_83"/>
<trip id="44" depart="24.64" fromJunction="4way_15" toJunction="3way_20"/>
<trip id="45" depart="25.200000000000003" fromJunction="4way_55" toJunction="3way_59"/>
<trip id="46" depart="25.76" fromJunction="3way_97" toJunction="3way_50"/>
<trip id="47" depart="26.320000000000004" fromJunction="3way_2" toJunction="4way_14"/>
<trip id="48" depart="26.880000000000003" fromJunction="3way_1" toJunction="4way_86"/>
<trip id="49" depart="27.44" fromJunction="3way_70" toJunction="4way_25"/>
<trip id="50" depart="28.000000000000004" fromJunction="4way_58" toJunction="4way_75"/>
<trip id="51" depart="28.560000000000002" fromJunction="4way_83" toJunction="3way_91"/>
<trip id="52" depart="29.120000000000005" fromJunction="4way_73" toJunction="4way_14"/>
<trip id="53" depart="29.680000000000003" fromJunction="4way_48" toJunction="3way_93"/>
<trip id="54" depart="30.240000000000002" fromJunction="4way_27" toJunction="4way_32"/>
<trip id="55" depart="30.800000000000004" fromJunction="3way_40" toJunction="4way_45"/>
<trip id="56" depart="31.360000000000003" fromJunction="4way_71" toJunction="4way_76"/>
<trip id="57" depart="31.92" fromJunction="4way_83" toJunction="4way_57"/>
<trip id="58" depart="32.480000000000004" fromJunction="4way_35" toJunction="4way_57"/>
<trip id="59" depart="33.040000000000006" fromJunction="4way_13" toJunction="4way_65"/>
<trip id="60" depart="33.6" fromJunction="4way_64" toJunction="4way_48"/>
<trip id="61" depart="34.160000000000004" fromJunction="4way_34" toJunction="4way_12"/>
<trip id="62" depart="34.720000000000006" fromJunction="3way_40" toJunction="3way_2"/>
<trip id="63" depart="35.28" fromJunction="3way_50" toJunction="4way_84"/>
<trip id="64" depart="35.84" fromJunction="4way_22" toJunction="4way_44"/>
<trip id="65" depart="36.400000000000006" fromJunction="3way_40" toJunction="3way_69"/>
<trip id="66" depart="36.96" fromJunction="4way_14" toJunction="4way_73"/>
<trip id="67" depart="37.52" fromJunction="4way_74" toJunction="4way_83"/>
<trip id="68" depart="38.080000000000005" fromJunction="4way_22" toJunction="4way_74"/>
<trip id="69" depart="38.64" fromJunction="4way_41" toJunction="4way_77"/>
<trip id="70" depart="39.2" fromJunction="4way_67" toJunction="4way_22"/>
<trip id="71" depart="39.760000000000005" fromJunction="4way_45" toJunction="4way_66"/>
<trip id="72" depart="40.32000000000001" fromJunction="4way_18" toJunction="3way_29"/>
<trip id="73" depart="40.88" fromJunction="4way_88" toJunction="4way_55"/>
<trip id="74" depart="41.440000000000005" fromJunction="4way_47" toJunction="3way_79"/>
<trip id="75" depart="42.00000000000001" fromJunction="4way_44" toJunction="3way_89"/>
<trip id="76" depart="42.56" fromJunction="4way_27" toJunction="3way_49"/>
<trip id="77" depart="43.120000000000005" fromJunction="4way_73" toJunction="4way_66"/>
<trip id="78" depart="43.68000000000001" fromJunction="3way_7" toJunction="4way_81"/>
<trip id="79" depart="44.24" fromJunction="4way_42" toJunction="4way_35"/>
<trip id="80" depart="44.800000000000004" fromJunction="4way_47" toJunction="4way_65"/>
<trip id="81" depart="45.36000000000001" fromJunction="4way_37" toJunction="4way_68"/>
<trip id="82" depart="45.92" fromJunction="4way_31" toJunction="3way_2"/>
<trip id="83" depart="46.480000000000004" fromJunction="3way_98" toJunction="4way_75"/>
<trip id="84" depart="47.040000000000006" fromJunction="3way_6" toJunction="4way_33"/>
<trip id="85" depart="47.6" fromJunction="3way_2" toJunction="3way_95"/>
<trip id="86" depart="48.160000000000004" fromJunction="3way_93" toJunction="4way_56"/>
<trip id="87" depart="48.720000000000006" fromJunction="4way_28" toJunction="4way_21"/>
<trip id="88" depart="49.28" fromJunction="3way_4" toJunction="4way_45"/>
<trip id="89" depart="49.84" fromJunction="4way_44" toJunction="3way_89"/>
<trip id="90" depart="50.400000000000006" fromJunction="3way_92" toJunction="4way_83"/>
<trip id="91" depart="50.96000000000001" fromJunction="4way_34" toJunction="4way_28"/>
<trip id="92" depart="51.52" fromJunction="4way_14" toJunction="4way_43"/>
<trip id="93" depart="52.080000000000005" fromJunction="3way_30" toJunction="4way_75"/>
<trip id="94" depart="52.64000000000001" fromJunction="3way_94" toJunction="4way_71"/>
<trip id="95" depart="53.2" fromJunction="4way_38" toJunction="3way_97"/>
<trip id="96" depart="53.760000000000005" fromJunction="4way_82" toJunction="4way_75"/>
<trip id="97" depart="54.32000000000001" fromJunction="3way_80" toJunction="3way_93"/>
<trip id="98" depart="54.88" fromJunction="4way_22" toJunction="3way_6"/>
<trip id="99" depart="55.440000000000005" fromJunction="4way_35" toJunction="3way_30"/>
<trip id="100" depart="56.00000000000001" fromJunction="3way_97" toJunction="4way_51"/>
<trip id="101" depart="56.56" fromJunction="3way_7" toJunction="3way_3"/>
<trip id="102" depart="57.120000000000005" fromJunction="4way_42" toJunction="4way_25"/>
<trip id="103" depart="57.68000000000001" fromJunction="4way_77" toJunction="4way_43"/>
<trip id="104" depart="58.24000000000001" fromJunction="3way_94" toJunction="4way_88"/>
<trip id="105" depart="58.800000000000004" fromJunction="3way_70" toJunction="4way_84"/>
<trip id="106" depart="59.36000000000001" fromJunction="4way_16" toJunction="3way_2"/>
<trip id="107" depart="59.92000000000001" fromJunction="4way_51" toJunction="3way_20"/>
<trip id="108" depart="60.480000000000004" fromJunction="4way_86" toJunction="4way_14"/>
<trip id="109" depart="61.040000000000006" fromJunction="4way_47" toJunction="4way_54"/>
<trip id="110" depart="61.60000000000001" fromJunction="4way_56" toJunction="3way_60"/>
<trip id="111" depart="62.160000000000004" fromJunction="4way_48" toJunction="3way_97"/>
<trip id="112" depart="62.720000000000006" fromJunction="3way_94" toJunction="4way_25"/>
<trip id="113" depart="63.28000000000001" fromJunction="4way_75" toJunction="4way_38"/>
<trip id="114" depart="63.84" fromJunction="3way_94" toJunction="3way_80"/>
<trip id="115" depart="64.4" fromJunction="3way_3" toJunction="4way_23"/>
<trip id="116" depart="64.96000000000001" fromJunction="4way_12" toJunction="3way_95"/>
<trip id="117" depart="65.52000000000001" fromJunction="4way_52" toJunction="4way_41"/>
<trip id="118" depart="66.08000000000001" fromJunction="4way_14" toJunction="3way_60"/>
<trip id="119" depart="66.64" fromJunction="3way_49" toJunction="4way_37"/>
<trip id="120" depart="67.2" fromJunction="3way_59" toJunction="4way_23"/>
<trip id="121" depart="67.76" fromJunction="4way_71" toJunction="4way_55"/>
<trip id="122" depart="68.32000000000001" fromJunction="3way_97" toJunction="4way_73"/>
<trip id="123" depart="68.88000000000001" fromJunction="4way_72" toJunction="3way_69"/>
<trip id="124" depart="69.44000000000001" fromJunction="4way_38" toJunction="4way_31"/>
<trip id="125" depart="70.0" fromJunction="4way_85" toJunction="4way_26"/>
<trip id="126" depart="70.56" fromJunction="3way_19" toJunction="4way_77"/>
<trip id="127" depart="71.12" fromJunction="4way_14" toJunction="4way_63"/>
<trip id="128" depart="71.68" fromJunction="3way_40" toJunction="4way_58"/>
<trip id="129" depart="72.24000000000001" fromJunction="3way_29" toJunction="3way_91"/>
<trip id="130" depart="72.80000000000001" fromJunction="4way_28" toJunction="3way_2"/>
<trip id="131" depart="73.36000000000001" fromJunction="4way_46" toJunction="4way_15"/>
<trip id="132" depart="73.92" fromJunction="4way_14" toJunction="3way_50"/>
<trip id="133" depart="74.48" fromJunction="4way_72" toJunction="3way_7"/>
<trip id="134" depart="75.04" fromJunction="4way_57" toJunction="4way_68"/>
<trip id="135" depart="75.60000000000001" fromJunction="4way_58" toJunction="4way_11"/>
<trip id="136" depart="76.16000000000001" fromJunction="4way_48" toJunction="3way_92"/>
<trip id="137" depart="76.72000000000001" fromJunction="4way_56" toJunction="4way_38"/>
<trip id="138" depart="77.28" fromJunction="4way_47" toJunction="4way_54"/>
<trip id="139" depart="77.84" fromJunction="4way_27" toJunction="3way_40"/>
<trip id="140" depart="78.4" fromJunction="3way_2" toJunction="4way_44"/>
<trip id="141" depart="78.96000000000001" fromJunction="3way_79" toJunction="4way_21"/>
<trip id="142" depart="79.52000000000001" fromJunction="4way_62" toJunction="4way_78"/>
<trip id="143" depart="80.08000000000001" fromJunction="4way_64" toJunction="4way_82"/>
<trip id="144" depart="80.64000000000001" fromJunction="3way_69" toJunction="4way_41"/>
<trip id="145" depart="81.2" fromJunction="3way_96" toJunction="4way_76"/>
<trip id="146" depart="81.76" fromJunction="3way_93" toJunction="4way_23"/>
<trip id="147" depart="82.32000000000001" fromJunction="4way_37" toJunction="3way_29"/>
<trip id="148" depart="82.88000000000001" fromJunction="4way_58" toJunction="4way_68"/>
<trip id="149" depart="83.44000000000001" fromJunction="4way_36" toJunction="4way_87"/>
<trip id="150" depart="84.00000000000001" fromJunction="3way_8" toJunction="3way_10"/>
<trip id="151" depart="84.56" fromJunction="3way_92" toJunction="4way_81"/>
<trip id="152" depart="85.12" fromJunction="3way_6" toJunction="3way_59"/>
<trip id="153" depart="85.68" fromJunction="3way_2" toJunction="4way_65"/>
<trip id="154" depart="86.24000000000001" fromJunction="3way_79" toJunction="4way_26"/>
<trip id="155" depart="86.80000000000001" fromJunction="3way_19" toJunction="3way_8"/>
<trip id="156" depart="87.36000000000001" fromJunction="3way_91" toJunction="4way_15"/>
<trip id="157" depart="87.92" fromJunction="4way_63" toJunction="4way_12"/>
<trip id="158" depart="88.48" fromJunction="4way_65" toJunction="4way_37"/>
<trip id="159" depart="89.04" fromJunction="3way_59" toJunction="3way_70"/>
<trip id="160" depart="89.60000000000001" fromJunction="3way_40" toJunction="3way_6"/>
<trip id="161" depart="90.16000000000001" fromJunction="4way_42" toJunction="3way_70"/>
<trip id="162" depart="90.72000000000001" fromJunction="4way_35" toJunction="4way_25"/>
<trip id="163" depart="91.28000000000002" fromJunction="4way_51" toJunction="3way_50"/>
<trip id="164" depart="91.84" fromJunction="4way_46" toJunction="3way_97"/>
<trip id="165" depart="92.4" fromJunction="4way_35" toJunction="3way_6"/>
<trip id="166" depart="92.96000000000001" fromJunction="4way_41" toJunction="3way_80"/>
<trip id="167" depart="93.52000000000001" fromJunction="3way_60" toJunction="4way_14"/>
<trip id="168" depart="94.08000000000001" fromJunction="3way_96" toJunction="4way_41"/>
<trip id="169" depart="94.64000000000001" fromJunction="3way_5" toJunction="4way_52"/>
<trip id="170" depart="95.2" fromJunction="3way_8" toJunction="4way_56"/>
<trip id="171" depart="95.76" fromJunction="3way_30" toJunction="4way_23"/>
<trip id="172" depart="96.32000000000001" fromJunction="4way_58" toJunction="4way_83"/>
<trip id="173" depart="96.88000000000001" fromJunction="3way_4" toJunction="4way_64"/>
<trip id="174" depart="97.44000000000001" fromJunction="4way_13" toJunction="4way_22"/>
<trip id="175" depart="98.00000000000001" fromJunction="4way_25" toJunction="4way_43"/>
<trip id="176" depart="98.56" fromJunction="3way_59" toJunction="3way_60"/>
<trip id="177" depart="99.12" fromJunction="4way_48" toJunction="4way_61"/>
<trip id="178" depart="99.68" fromJunction="4way_77" toJunction="3way_97"/>
<trip id="179" depart="100.24000000000001" fromJunction="4way_42" toJunction="4way_53"/>
<trip id="180" depart="100.80000000000001" fromJunction="4way_52" toJunction="4way_57"/>
<trip id="181" depart="101.36000000000001" fromJunction="4way_71" toJunction="4way_65"/>
<trip id="182" depart="101.92000000000002" fromJunction="4way_35" toJunction="4way_77"/>
<trip id="183" depart="102.48" fromJunction="3way_10" toJunction="4way_45"/>
<trip id="184" depart="103.04" fromJunction="4way_64" toJunction="4way_16"/>
<trip id="185" depart="103.60000000000001" fromJunction="3way_89" toJunction="3way_91"/>
<trip id="186" depart="104.16000000000001" fromJunction="4way_58" toJunction="4way_56"/>
<trip id="187" depart="104.72000000000001" fromJunction="4way_14" toJunction="4way_42"/>
<trip id="188" depart="105.28000000000002" fromJunction="4way_42" toJunction="4way_37"/>
<trip id="189" depart="105.84" fromJunction="4way_83" toJunction="4way_48"/>
<trip id="190" depart="106.4" fromJunction="4way_87" toJunction="4way_76"/>
<trip id="191" depart="106.96000000000001" fromJunction="3way_89" toJunction="4way_76"/>
<trip id="192" depart="107.52000000000001" fromJunction="4way_71" toJunction="4way_54"/>
<trip id="193" depart="108.08000000000001" fromJunction="4way_12" toJunction="3way_7"/>
<trip id="194" depart="108.64000000000001" fromJunction="4way_27" toJunction="3way_80"/>
<trip id="195" depart="109.20000000000002" fromJunction="4way_58" toJunction="3way_4"/>
<trip id="196" depart="109.76" fromJunction="3way_97" toJunction="3way_2"/>
<trip id="197" depart="110.32000000000001" fromJunction="4way_28" toJunction="4way_71"/>
<trip id="198" depart="110.88000000000001" fromJunction="4way_38" toJunction="3way_29"/>
<trip id="199" depart="111.44000000000001" fromJunction="4way_42" toJunction="4way_47"/>
<trip id="200" depart="112.00000000000001" fromJunction="3way_92" toJunction="3way_10"/>
<trip id="201" depart="112.56000000000002" fromJunction="3way_4" toJunction="4way_34"/>
<trip id="202" depart="113.12" fromJunction="4way_22" toJunction="3way_2"/>
<trip id="203" depart="113.68" fromJunction="3way_80" toJunction="3way_7"/>
<trip id="204" depart="114.24000000000001" fromJunction="3way_80" toJunction="3way_93"/>
<trip id="205" depart="114.80000000000001" fromJunction="3way_2" toJunction="3way_59"/>
<trip id="206" depart="115.36000000000001" fromJunction="4way_44" toJunction="3way_49"/>
<trip id="207" depart="115.92000000000002" fromJunction="4way_88" toJunction="4way_68"/>
<trip id="208" depart="116.48000000000002" fromJunction="3way_89" toJunction="4way_81"/>
<trip id="209" depart="117.04" fromJunction="4way_82" toJunction="4way_64"/>
<trip id="210" depart="117.60000000000001" fromJunction="3way_7" toJunction="4way_78"/>
<trip id="211" depart="118.16000000000001" fromJunction="3way_50" toJunction="4way_46"/>
<trip id="212" depart="118.72000000000001" fromJunction="4way_84" toJunction="3way_91"/>
<trip id="213" depart="119.28000000000002" fromJunction="4way_84" toJunction="3way_91"/>
<trip id="214" depart="119.84000000000002" fromJunction="4way_12" toJunction="4way_23"/>
<trip id="215" depart="120.4" fromJunction="3way_50" toJunction="4way_63"/>
<trip id="216" depart="120.96000000000001" fromJunction="4way_81" toJunction="4way_45"/>
<trip id="217" depart="121.52000000000001" fromJunction="4way_86" toJunction="4way_31"/>
<trip id="218" depart="122.08000000000001" fromJunction="3way_5" toJunction="4way_18"/>
<trip id="219" depart="122.64000000000001" fromJunction="4way_21" toJunction="3way_92"/>
<trip id="220" depart="123.20000000000002" fromJunction="4way_78" toJunction="4way_76"/>
<trip id="221" depart="123.76" fromJunction="4way_77" toJunction="4way_68"/>
<trip id="222" depart="124.32000000000001" fromJunction="4way_88" toJunction="3way_40"/>
<trip id="223" depart="124.88000000000001" fromJunction="3way_39" toJunction="3way_91"/>
<trip id="224" depart="125.44000000000001" fromJunction="3way_92" toJunction="4way_48"/>
<trip id="225" depart="126.00000000000001" fromJunction="3way_6" toJunction="4way_35"/>
<trip id="226" depart="126.56000000000002" fromJunction="4way_57" toJunction="4way_75"/>
<trip id="227" depart="127.12000000000002" fromJunction="4way_51" toJunction="3way_60"/>
<trip id="228" depart="127.68" fromJunction="4way_85" toJunction="4way_41"/>
<trip id="229" depart="128.24" fromJunction="3way_98" toJunction="3way_92"/>
<trip id="230" depart="128.8" fromJunction="3way_30" toJunction="4way_42"/>
<trip id="231" depart="129.36" fromJunction="3way_92" toJunction="4way_17"/>
<trip id="232" depart="129.92000000000002" fromJunction="4way_38" toJunction="4way_13"/>
<trip id="233" depart="130.48000000000002" fromJunction="4way_47" toJunction="4way_54"/>
<trip id="234" depart="131.04000000000002" fromJunction="4way_16" toJunction="4way_38"/>
<trip id="235" depart="131.60000000000002" fromJunction="4way_58" toJunction="4way_45"/>
<trip id="236" depart="132.16000000000003" fromJunction="4way_42" toJunction="4way_88"/>
<trip id="237" depart="132.72" fromJunction="3way_40" toJunction="3way_7"/>
<trip id="238" depart="133.28" fromJunction="4way_12" toJunction="3way_79"/>
<trip id="239" depart="133.84" fromJunction="4way_24" toJunction="3way_59"/>
<trip id="240" depart="134.4" fromJunction="4way_67" toJunction="4way_51"/>
<trip id="241" depart="134.96" fromJunction="4way_53" toJunction="4way_58"/>
<trip id="242" depart="135.52" fromJunction="4way_14" toJunction="3way_60"/>
<trip id="243" depart="136.08" fromJunction="4way_81" toJunction="4way_77"/>
<trip id="244" depart="136.64000000000001" fromJunction="3way_60" toJunction="4way_53"/>
<trip id="245" depart="137.20000000000002" fromJunction="4way_71" toJunction="4way_42"/>
<trip id="246" depart="137.76000000000002" fromJunction="4way_13" toJunction="3way_91"/>
<trip id="247" depart="138.32000000000002" fromJunction="4way_41" toJunction="3way_30"/>
<trip id="248" depart="138.88000000000002" fromJunction="4way_16" toJunction="4way_33"/>
<trip id="249" depart="139.44000000000003" fromJunction="4way_18" toJunction="4way_11"/>
<trip id="250" depart="140.0" fromJunction="3way_5" toJunction="4way_37"/>
<trip id="251" depart="140.56" fromJunction="4way_32" toJunction="3way_80"/>
<trip id="252" depart="141.12" fromJunction="4way_21" toJunction="3way_39"/>
<trip id="253" depart="141.68" fromJunction="4way_25" toJunction="4way_85"/>
<trip id="254" depart="142.24" fromJunction="4way_55" toJunction="4way_44"/>
<trip id="255" depart="142.8" fromJunction="4way_11" toJunction="3way_95"/>
<trip id="256" depart="143.36" fromJunction="4way_57" toJunction="4way_15"/>
<trip id="257" depart="143.92000000000002" fromJunction="3way_50" toJunction="4way_53"/>
<trip id="258" depart="144.48000000000002" fromJunction="4way_55" toJunction="3way_3"/>
<trip id="259" depart="145.04000000000002" fromJunction="4way_41" toJunction="3way_1"/>
<trip id="260" depart="145.60000000000002" fromJunction="4way_18" toJunction="4way_33"/>
<trip id="261" depart="146.16000000000003" fromJunction="4way_71" toJunction="3way_19"/>
<trip id="262" depart="146.72000000000003" fromJunction="4way_11" toJunction="3way_3"/>
<trip id="263" depart="147.28" fromJunction="3way_60" toJunction="4way_44"/>
<trip id="264" depart="147.84" fromJunction="3way_49" toJunction="3way_94"/>
<trip id="265" depart="148.4" fromJunction="4way_35" toJunction="4way_83"/>
<trip id="266" depart="148.96" fromJunction="4way_48" toJunction="4way_15"/>
<trip id="267" depart="149.52" fromJunction="4way_74" toJunction="3way_1"/>
<trip id="268" depart="150.08" fromJunction="4way_14" toJunction="4way_24"/>
<trip id="269" depart="150.64000000000001" fromJunction="3way_2" toJunction="4way_58"/>
<trip id="270" depart="151.20000000000002" fromJunction="4way_76" toJunction="4way_35"/>
<trip id="271" depart="151.76000000000002" fromJunction="4way_11" toJunction="4way_13"/>
<trip id="272" depart="152.32000000000002" fromJunction="3way_29" toJunction="4way_46"/>
<trip id="273" depart="152.88000000000002" fromJunction="4way_23" toJunction="4way_32"/>
<trip id="274" depart="153.44000000000003" fromJunction="3way_19" toJunction="4way_35"/>
<trip id="275" depart="154.00000000000003" fromJunction="4way_81" toJunction="3way_93"/>
<trip id="276" depart="154.56" fromJunction="4way_67" toJunction="4way_44"/>
<trip id="277" depart="155.12" fromJunction="3way_59" toJunction="4way_44"/>
<trip id="278" depart="155.68" fromJunction="4way_47" toJunction="4way_78"/>
<trip id="279" depart="156.24" fromJunction="4way_18" toJunction="4way_13"/>
<trip id="280" depart="156.8" fromJunction="4way_18" toJunction="4way_43"/>
<trip id="281" depart="157.36" fromJunction="4way_58" toJunction="4way_86"/>
<trip id="282" depart="157.92000000000002" fromJunction="3way_4" toJunction="4way_18"/>
<trip id="283" depart="158.48000000000002" fromJunction="4way_61" toJunction="3way_98"/>
<trip id="284" depart="159.04000000000002" fromJunction="3way_40" toJunction="4way_48"/>
<trip id="285" depart="159.60000000000002" fromJunction="4way_67" toJunction="3way_89"/>
<trip id="286" depart="160.16000000000003" fromJunction="4way_87" toJunction="4way_32"/>
<trip id="287" depart="160.72000000000003" fromJunction="4way_84" toJunction="3way_89"/>
<trip id="288" depart="161.28000000000003" fromJunction="3way_8" toJunction="4way_32"/>
<trip id="289" depart="161.84" fromJunction="3way_91" toJunction="4way_35"/>
<trip id="290" depart="162.4" fromJunction="3way_6" toJunction="3way_4"/>
<trip id="291" depart="162.96" fromJunction="4way_87" toJunction="3way_6"/>
<trip id="292" depart="163.52" fromJunction="4way_77" toJunction="4way_85"/>
<trip id="293" depart="164.08" fromJunction="4way_33" toJunction="4way_15"/>
<trip id="294" depart="164.64000000000001" fromJunction="4way_88" toJunction="3way_30"/>
<trip id="295" depart="165.20000000000002" fromJunction="4way_62" toJunction="4way_31"/>
<trip id="296" depart="165.76000000000002" fromJunction="4way_78" toJunction="4way_51"/>
<trip id="297" depart="166.32000000000002" fromJunction="3way_10" toJunction="3way_98"/>
<trip id="298" depart="166.88000000000002" fromJunction="3way_7" toJunction="4way_25"/>
<trip id="299" depart="167.44000000000003" fromJunction="4way_62" toJunction="4way_34"/>
<trip id="300" depart="168.00000000000003" fromJunction="3way_92" toJunction="3way_50"/>
<trip id="301" depart="168.56" fromJunction="4way_41" toJunction="4way_23"/>
<trip id="302" depart="169.12" fromJunction="4way_11" toJunction="4way_42"/>
<trip id="303" depart="169.68" fromJunction="3way_59" toJunction="4way_68"/>
<trip id="304" depart="170.24" fromJunction="4way_11" toJunction="3way_29"/>
<trip id="305" depart="170.8" fromJunction="4way_84" toJunction="4way_14"/>
<trip id="306" depart="171.36" fromJunction="4way_88" toJunction="4way_71"/>
<trip id="307" depart="171.92000000000002" fromJunction="4way_65" toJunction="4way_21"/>
<trip id="308" depart="172.48000000000002" fromJunction="4way_76" toJunction="4way_64"/>
<trip id="309" depart="173.04000000000002" fromJunction="4way_67" toJunction="4way_68"/>
<trip id="310" depart="173.60000000000002" fromJunction="4way_45" toJunction="4way_26"/>
<trip id="311" depart="174.16000000000003" fromJunction="3way_79" toJunction="4way_11"/>
<trip id="312" depart="174.72000000000003" fromJunction="3way_91" toJunction="3way_7"/>
<trip id="313" depart="175.28000000000003" fromJunction="4way_33" toJunction="4way_22"/>
<trip id="314" depart="175.84" fromJunction="4way_58" toJunction="4way_36"/>
<trip id="315" depart="176.4" fromJunction="3way_39" toJunction="3way_49"/>
<trip id="316" depart="176.96" fromJunction="4way_85" toJunction="4way_14"/>
<trip id="317" depart="177.52" fromJunction="4way_28" toJunction="4way_27"/>
<trip id="318" depart="178.08" fromJunction="4way_71" toJunction="4way_78"/>
<trip id="319" depart="178.64000000000001" fromJunction="3way_79" toJunction="4way_51"/>
<trip id="320" depart="179.20000000000002" fromJunction="4way_84" toJunction="4way_25"/>
<trip id="321" depart="179.76000000000002" fromJunction="3way_29" toJunction="4way_37"/>
<trip id="322" depart="180.32000000000002" fromJunction="4way_83" toJunction="4way_82"/>
<trip id="323" depart="180.88000000000002" fromJunction="3way_98" toJunction="3way_91"/>
<trip id="324" depart="181.44000000000003" fromJunction="3way_6" toJunction="4way_37"/>
<trip id="325" depart="182.00000000000003" fromJunction="3way_49" toJunction="4way_62"/>
<trip id="326" depart="182.56000000000003" fromJunction="4way_78" toJunction="4way_42"/>
<trip id="327" depart="183.12" fromJunction="4way_37" toJunction="4way_12"/>
<trip id="328" depart="183.68" fromJunction="3way_60" toJunction="3way_49"/>
<trip id="329" depart="184.24" fromJunction="4way_21" toJunction="4way_15"/>
<trip id="330" depart="184.8" fromJunction="4way_64" toJunction="4way_55"/>
<trip id="331" depart="185.36" fromJunction="4way_22" toJunction="4way_71"/>
<trip id="332" depart="185.92000000000002" fromJunction="3way_7" toJunction="4way_34"/>
<trip id="333" depart="186.48000000000002" fromJunction="4way_74" toJunction="4way_76"/>
<trip id="334" depart="187.04000000000002" fromJunction="4way_43" toJunction="4way_65"/>
<trip id="335" depart="187.60000000000002" fromJunction="4way_71" toJunction="3way_39"/>
<trip id="336" depart="188.16000000000003" fromJunction="3way_20" toJunction="4way_71"/>
<trip id="337" depart="188.72000000000003" fromJunction="4way_75" toJunction="3way_3"/>
<trip id="338" depart="189.28000000000003" fromJunction="4way_34" toJunction="3way_39"/>
<trip id="339" depart="189.84000000000003" fromJunction="4way_54" toJunction="4way_45"/>
<trip id="340" depart="190.4" fromJunction="3way_29" toJunction="4way_58"/>
<trip id="341" depart="190.96" fromJunction="3way_3" toJunction="4way_47"/>
<trip id="342" depart="191.52" fromJunction="4way_71" toJunction="4way_43"/>
<trip id="343" depart="192.08" fromJunction="4way_41" toJunction="4way_33"/>
<trip id="344" depart="192.64000000000001" fromJunction="3way_2" toJunction="3way_96"/>
<trip id="345" depart="193.20000000000002" fromJunction="4way_17" toJunction="4way_23"/>
<trip id="346" depart="193.76000000000002" fromJunction="3way_93" toJunction="4way_41"/>
<trip id="347" depart="194.32000000000002" fromJunction="3way_19" toJunction="3way_8"/>
<trip id="348" depart="194.88000000000002" fromJunction="3way_29" toJunction="3way_93"/>
<trip id="349" depart="195.44000000000003" fromJunction="3way_7" toJunction="3way_70"/>
<trip id="350" depart="196.00000000000003" fromJunction="4way_37" toJunction="3way_7"/>
<trip id="351" depart="196.56000000000003" fromJunction="4way_63" toJunction="3way_89"/>
<trip id="352" depart="197.12" fromJunction="4way_42" toJunction="4way_36"/>
<trip id="353" depart="197.68" fromJunction="3way_95" toJunction="3way_79"/>
<trip id="354" depart="198.24" fromJunction="4way_33" toJunction="4way_22"/>
<trip id="355" depart="198.8" fromJunction="4way_46" toJunction="4way_21"/>
<trip id="356" depart="199.36" fromJunction="4way_28" toJunction="4way_16"/>
<trip id="357" depart="199.92000000000002" fromJunction="4way_67" toJunction="3way_3"/>