<routes xmlns:xsi="http://www.w3.org/2001/XMLSchema-instance" xsi:noNamespaceSchemaLocation="http://sumo.dlr.de/xsd/routes_file.xsd">
<trip id="0" depart="0.0" fromJunction="4way_67" toJunction="4way_12"/>
<trip id="1" depart="2.2222" fromJunction="4way_65" toJunction="4way_48"/>
<trip id="2" depart="4.4444" fromJunction="4way_13" toJunction="4way_46"/>
<trip id="3" depart="6.6666" fromJunction="4way_60" toJunction="4way_55"/>
<trip id="4" depart="8.8888" fromJunction="4way_19" toJunction="4way_52"/>
<trip id="5" depart="11.111" fromJunction="4way_56" toJunction="4way_50"/>
<trip id="6" depart="13.3332" fromJunction="4way_25" toJunction="4way_21"/>
<trip id="7" depart="15.555399999999999" fromJunction="3way_7" toJunction="3way_6"/>
<trip id="8" depart="17.7776" fromJunction="4way_24" toJunction="3way_2"/>
<trip id="9" depart="19.9998" fromJunction="4way_42" toJunction="4way_41"/>
<trip id="10" depart="22.222" fromJunction="4way_59" toJunction="4way_61"/>
<trip id="11" depart="24.4442" fromJunction="4way_50" toJunction="4way_11"/>
<trip id="12" depart="26.6664" fromJunction="4way_13" toJunction="3way_35"/>
<trip id="13" depart="28.8886" fromJunction="4way_34" toJunction="3way_53"/>
<trip id="14" depart="31.110799999999998" fromJunction="4way_37" toJunction="4way_56"/>
<trip id="15" depart="33.333" fromJunction="4way_41" toJunction="3way_73"/>
<trip id="16" depart="35.5552" fromJunction="4way_21" toJunction="4way_11"/>
<trip id="17" depart="37.7774" fromJunction="4way_57" toJunction="3way_2"/>
<trip id="18" depart="39.9996" fromJunction="4way_40" toJunction="4way_34"/>
<trip id="19" depart="42.2218" fromJunction="4way_55" toJunction="3way_9"/>
<trip id="20" depart="44.444" fromJunction="3way_5" toJunction="4way_49"/>
<trip id="21" depart="46.666199999999996" fromJunction="3way_35" toJunction="3way_77"/>
<trip id="22" depart="48.8884" fromJunction="4way_10" toJunction="3way_36"/>
<trip id="23" depart="51.1106" fromJunction="4way_55" toJunction="4way_21"/>
<trip id="24" depart="53.3328" fromJunction="3way_17" toJunction="4way_70"/>
<trip id="25" depart="55.555" fromJunction="3way_62" toJunction="3way_77"/>
<trip id="26" depart="57.7772" fromJunction="3way_74" toJunction="4way_22"/>
<trip id="27" depart="59.9994" fromJunction="3way_75" toJunction="4way_11"/>
<trip id="28" depart="62.221599999999995" fromJunction="3way_26" toJunction="3way_62"/>
<trip id="29" depart="64.4438" fromJunction="3way_44" toJunction="4way_22"/>
<trip id="30" depart="66.666" fromJunction="4way_10" toJunction="3way_78"/>
<trip id="31" depart="68.8882" fromJunction="3way_17" toJunction="4way_15"/>
<trip id="32" depart="71.1104" fromJunction="3way_17" toJunction="4way_24"/>
<trip id="33" depart="73.3326" fromJunction="4way_20" toJunction="4way_61"/>
<trip id="34" depart="75.5548" fromJunction="4way_48" toJunction="4way_61"/>
<trip id="35" depart="77.777" fromJunction="3way_4" toJunction="4way_14"/>
<trip id="36" depart="79.9992" fromJunction="3way_35" toJunction="3way_63"/>
<trip id="37" depart="82.2214" fromJunction="3way_35" toJunction="3way_54"/>
<trip id="38" depart="84.4436" fromJunction="4way_37" toJunction="3way_36"/>
<trip id="39" depart="86.6658" fromJunction="4way_49" toJunction="3way_5"/>
<trip id="40" depart="88.888" fromJunction="3way_73" toJunction="4way_21"/>
<trip id="41" depart="91.11019999999999" fromJunction="3way_17" toJunction="4way_56"/>
<trip id="42" depart="93.33239999999999" fromJunction="4way_25" toJunction="4way_30"/>
<trip id="43" depart="95.5546" fromJunction="4way_31" toJunction="3way_36"/>
<trip id="44" depart="97.7768" fromJunction="4way_67" toJunction="3way_44"/>
<trip id="45" depart="99.999" fromJunction="3way_79" toJunction="3way_54"/>
<trip id="46" depart="102.2212" fromJunction="3way_2" toJunction="4way_39"/>
<trip id="47" depart="104.4434" fromJunction="3way_1" toJunction="4way_15"/>
<trip id="48" depart="106.6656" fromJunction="3way_73" toJunction="4way_40"/>
<trip id="49" depart="108.8878" fromJunction="4way_52" toJunction="4way_14"/>
<trip id="50" depart="111.11" fromJunction="4way_30" toJunction="3way_74"/>
<trip id="51" depart="113.3322" fromJunction="4way_30" toJunction="4way_39"/>
<trip id="52" depart="115.5544" fromJunction="4way_43" toJunction="3way_76"/>
<trip id="53" depart="117.7766" fromJunction="4way_33" toJunction="4way_64"/>
<trip id="54" depart="119.9988" fromJunction="3way_54" toJunction="4way_49"/>
<trip id="55" depart="122.221" fromJunction="4way_28" toJunction="4way_68"/>
<trip id="56" depart="124.44319999999999" fromJunction="4way_30" toJunction="4way_51"/>
<trip id="57" depart="126.66539999999999" fromJunction="4way_49" toJunction="4way_51"/>
<trip id="58" depart="128.8876" fromJunction="4way_38" toJunction="4way_67"/>
<trip id="59" depart="131.1098" fromJunction="4way_13" toJunction="4way_43"/>
<trip id="60" depart="133.332" fromJunction="4way_48" toJunction="4way_46"/>
<trip id="61" depart="135.5542" fromJunction="3way_45" toJunction="3way_2"/>
<trip id="62" depart="137.7764" fromJunction="3way_54" toJunction="4way_22"/>
<trip id="63" depart="139.9986" fromJunction="4way_55" toJunction="4way_57"/>
<trip id="64" depart="142.2208" fromJunction="3way_54" toJunction="3way_44"/>
<trip id="65" depart="144.44299999999998" fromJunction="4way_39" toJunction="4way_21"/>
<trip id="66" depart="146.6652" fromJunction="4way_22" toJunction="4way_30"/>
<trip id="67" depart="148.88739999999999" fromJunction="4way_55" toJunction="4way_22"/>
<trip id="68" depart="151.1096" fromJunction="4way_10" toJunction="4way_69"/>
<trip id="69" depart="153.3318" fromJunction="4way_60" toJunction="4way_55"/>
<trip id="70" depart="155.554" fromJunction="4way_58" toJunction="4way_68"/>
<trip id="71" depart="157.7762" fromJunction="4way_16" toJunction="3way_17"/>
<trip id="72" depart="159.9984" fromJunction="4way_70" toJunction="4way_58"/>
<trip id="73" depart="162.2206" fromJunction="4way_42" toJunction="3way_53"/>
<trip id="74" depart="164.4428" fromJunction="4way_57" toJunction="3way_62"/>
<trip id="75" depart="166.665" fromJunction="4way_33" toJunction="3way_35"/>
<trip id="76" depart="168.8872" fromJunction="4way_21" toJunction="4way_68"/>
<trip id="77" depart="171.1094" fromJunction="3way_6" toJunction="4way_37"/>
<trip id="78" depart="173.3316" fromJunction="4way_64" toJunction="4way_49"/>
<trip id="79" depart="175.5538" fromJunction="4way_42" toJunction="4way_67"/>
<trip id="80" depart="177.776" fromJunction="4way_33" toJunction="4way_61"/>
<trip id="81" depart="179.9982" fromJunction="3way_9" toJunction="3way_1"/>
<trip id="82" depart="182.22039999999998" fromJunction="3way_71" toJunction="4way_14"/>
<trip id="83" depart="184.4426" fromJunction="3way_5" toJunction="4way_56"/>
<trip id="84" depart="186.66479999999999" fromJunction="3way_2" toJunction="3way_78"/>
<trip id="85" depart="188.887" fromJunction="3way_76" toJunction="4way_59"/>
<trip id="86" depart="191.1092" fromJunction="4way_25" toJunction="3way_18"/>
<trip id="87" depart="193.3314" fromJunction="3way_3" toJunction="4way_58"/>
<trip id="88" depart="195.5536" fromJunction="4way_57" toJunction="3way_62"/>
<trip id="89" depart="197.7758" fromJunction="3way_75" toJunction="4way_30"/>
<trip id="90" depart="199.998" fromJunction="4way_57" toJunction="4way_25"/>
<trip id="91" depart="202.2202" fromJunction="4way_39" toJunction="4way_65"/>
<trip id="92" depart="204.4424" fromJunction="3way_36" toJunction="4way_14"/>
<trip id="93" depart="206.6646" fromJunction="3way_77" toJunction="4way_28"/>
<trip id="94" depart="208.8868" fromJunction="4way_34" toJunction="3way_79"/>
<trip id="95" depart="211.109" fromJunction="4way_29" toJunction="4way_14"/>
<trip id="96" depart="213.3312" fromJunction="3way_74" toJunction="3way_76"/>
<trip id="97" depart="215.55339999999998" fromJunction="4way_55" toJunction="3way_5"/>
<trip id="98" depart="217.7756" fromJunction="4way_49" toJunction="3way_36"/>
<trip id="99" depart="219.99779999999998" fromJunction="3way_71" toJunction="4way_19"/>
<trip id="100" depart="222.22" fromJunction="3way_6" toJunction="3way_2"/>
<trip id="101" depart="224.44219999999999" fromJunction="4way_64" toJunction="4way_40"/>
<trip id="102" depart="226.6644" fromJunction="4way_69" toJunction="4way_65"/>
<trip id="103" depart="228.8866" fromJunction="3way_77" toJunction="4way_70"/>
<trip id="104" depart="231.1088" fromJunction="3way_73" toJunction="4way_31"/>
<trip id="105" depart="233.331" fromJunction="4way_32" toJunction="3way_2"/>
<trip id="106" depart="235.5532" fromJunction="4way_19" toJunction="3way_36"/>
<trip id="107" depart="237.7754" fromJunction="4way_15" toJunction="4way_39"/>
<trip id="108" depart="239.9976" fromJunction="4way_51" toJunction="4way_66"/>
<trip id="109" depart="242.2198" fromJunction="4way_59" toJunction="3way_63"/>
<trip id="110" depart="244.442" fromJunction="4way_43" toJunction="3way_79"/>
<trip id="111" depart="246.6642" fromJunction="3way_77" toJunction="4way_40"/>
<trip id="112" depart="248.88639999999998" fromJunction="4way_14" toJunction="4way_34"/>
<trip id="113" depart="251.1086" fromJunction="3way_77" toJunction="3way_74"/>
<trip id="114" depart="253.33079999999998" fromJunction="3way_2" toJunction="4way_47"/>
<trip id="115" depart="255.553" fromJunction="4way_46" toJunction="3way_78"/>
<trip id="116" depart="257.7752" fromJunction="4way_11" toJunction="4way_10"/>
<trip id="117" depart="259.99739999999997" fromJunction="4way_39" toJunction="3way_63"/>
<trip id="118" depart="262.2196" fromJunction="3way_35" toJunction="4way_42"/>
<trip id="119" depart="264.4418" fromJunction="3way_44" toJunction="4way_47"/>
<trip id="120" depart="266.664" fromJunction="4way_28" toJunction="4way_67"/>
<trip id="121" depart="268.8862" fromJunction="3way_79" toJunction="4way_21"/>
<trip id="122" depart="271.1084" fromJunction="4way_29" toJunction="3way_53"/>
<trip id="123" depart="273.3306" fromJunction="4way_34" toJunction="3way_9"/>
<trip id="124" depart="275.5528" fromJunction="4way_23" toJunction="4way_32"/>
<trip id="125" depart="277.775" fromJunction="3way_7" toJunction="4way_69"/>
<trip id="126" depart="279.9972" fromJunction="4way_39" toJunction="4way_12"/>
<trip id="127" depart="282.2194" fromJunction="3way_54" toJunction="4way_52"/>
<trip id="128" depart="284.4416" fromJunction="3way_17" toJunction="3way_75"/>
<trip id="129" depart="286.6638" fromJunction="4way_25" toJunction="3way_2"/>
<trip id="130" depart="288.88599999999997" fromJunction="4way_50" toJunction="4way_31"/>
<trip id="131" depart="291.1082" fromJunction="4way_39" toJunction="3way_63"/>
<trip id="132" depart="293.3304" fromJunction="4way_29" toJunction="3way_5"/>
<trip id="133" depart="295.5526" fromJunction="4way_51" toJunction="4way_61"/>
<trip id="134" depart="297.77479999999997" fromJunction="4way_52" toJunction="3way_18"/>
<trip id="135" depart="299.997" fromJunction="4way_43" toJunction="3way_76"/>
<trip id="136" depart="302.2192" fromJunction="4way_59" toJunction="4way_34"/>
<trip id="137" depart="304.4414" fromJunction="4way_51" toJunction="4way_66"/>
<trip id="138" depart="306.6636" fromJunction="4way_33" toJunction="3way_54"/>
<trip id="139" depart="308.8858" fromJunction="3way_2" toJunction="4way_57"/>
<trip id="140" depart="311.108" fromJunction="3way_53" toJunction="3way_18"/>
<trip id="141" depart="313.3302" fromJunction="4way_20" toJunction="4way_61"/>
<trip id="142" depart="315.5524" fromJunction="4way_13" toJunction="4way_38"/>
<trip id="143" depart="317.7746" fromJunction="3way_44" toJunction="4way_10"/>
<trip id="144" depart="319.9968" fromJunction="3way_79" toJunction="4way_15"/>
<trip id="145" depart="322.219" fromJunction="3way_76" toJunction="4way_47"/>
<trip id="146" depart="324.4412" fromJunction="4way_42" toJunction="3way_17"/>
<trip id="147" depart="326.66339999999997" fromJunction="4way_43" toJunction="4way_52"/>
<trip id="148" depart="328.8856" fromJunction="4way_41" toJunction="4way_69"/>
<trip id="149" depart="331.1078" fromJunction="3way_7" toJunction="3way_27"/>
<trip id="150" depart="333.33" fromJunction="3way_76" toJunction="4way_37"/>
<trip id="151" depart="335.55219999999997" fromJunction="3way_5" toJunction="3way_44"/>
<trip id="152" depart="337.7744" fromJunction="3way_1" toJunction="4way_67"/>
<trip id="153" depart="339.9966" fromJunction="3way_53" toJunction="4way_41"/>
<trip id="154" depart="342.2188" fromJunction="3way_75" toJunction="4way_31"/>
<trip id="155" depart="344.441" fromJunction="4way_12" toJunction="4way_46"/>
<trip id="156" depart="346.6632" fromJunction="4way_67" toJunction="4way_42"/>
<trip id="157" depart="348.8854" fromJunction="3way_44" toJunction="3way_73"/>
<trip id="158" depart="351.1076" fromJunction="3way_45" toJunction="3way_5"/>
<trip id="159" depart="353.3298" fromJunction="4way_11" toJunction="3way_73"/>
<trip id="160" depart="355.552" fromJunction="4way_49" toJunction="4way_40"/>
<trip id="161" depart="357.7742" fromJunction="4way_19" toJunction="3way_63"/>
<trip id="162" depart="359.9964" fromJunction="4way_50" toJunction="3way_71"/>
<trip id="163" depart="362.2186" fromJunction="4way_49" toJunction="3way_5"/>
<trip id="164" depart="364.44079999999997" fromJunction="4way_10" toJunction="3way_74"/>
<trip id="165" depart="366.663" fromJunction="3way_63" toJunction="4way_39"/>
<trip id="166" depart="368.8852" fromJunction="3way_78" toJunction="4way_10"/>
<trip id="167" depart="371.1074" fromJunction="3way_4" toJunction="4way_11"/>
<trip id="168" depart="373.32959999999997" fromJunction="3way_6" toJunction="4way_59"/>
<trip id="169" depart="375.5518" fromJunction="3way_45" toJunction="4way_47"/>
<trip id="170" depart="377.774" fromJunction="4way_43" toJunction="4way_30"/>
<trip id="171" depart="379.9962" fromJunction="3way_3" toJunction="4way_13"/>
<trip id="172" depart="382.2184" fromJunction="4way_47" toJunction="4way_55"/>
<trip id="173" depart="384.4406" fromJunction="4way_40" toJunction="4way_65"/>
<trip id="174" depart="386.6628" fromJunction="3way_35" toJunction="3way_63"/>
<trip id="175" depart="388.885" fromJunction="4way_43" toJunction="4way_28"/>
<trip id="176" depart="391.1072" fromJunction="4way_69" toJunction="3way_79"/>
<trip id="177" depart="393.32939999999996" fromJunction="4way_11" toJunction="4way_65"/>
<trip id="178" depart="395.5516" fromJunction="4way_11" toJunction="4way_51"/>
<trip id="179" depart="397.7738" fromJunction="4way_28" toJunction="4way_67"/>
<trip id="180" depart="399.996" fromJunction="4way_49" toJunction="4way_69"/>
<trip id="181" depart="402.21819999999997" fromJunction="3way_27" toJunction="4way_49"/>
<trip id="182" depart="404.4404" fromJunction="4way_66" toJunction="4way_32"/>
<trip id="183" depart="406.6626" fromJunction="3way_62" toJunction="3way_75"/>
<trip id="184" depart="408.8848" fromJunction="4way_43" toJunction="4way_59"/>
<trip id="185" depart="411.10699999999997" fromJunction="4way_39" toJunction="4way_11"/>
<trip id="186" depart="413.3292" fromJunction="4way_11" toJunction="4way_42"/>
<trip id="187" depart="415.5514" fromJunction="4way_30" toJunction="4way_43"/>
<trip id="188" depart="417.7736" fromJunction="4way_69" toJunction="4way_15"/>
<trip id="189" depart="419.9958" fromJunction="3way_62" toJunction="4way_68"/>
<trip id="190" depart="422.218" fromJunction="4way_28" toJunction="4way_66"/>
<trip id="191" depart="424.4402" fromJunction="4way_46" toJunction="3way_5"/>
<trip id="192" depart="426.6624" fromJunction="4way_33" toJunction="3way_74"/>
<trip id="193" depart="428.8846" fromJunction="4way_43" toJunction="3way_3"/>
<trip id="194" depart="431.10679999999996" fromJunction="3way_79" toJunction="3way_2"/>
<trip id="195" depart="433.329" fromJunction="4way_25" toJunction="4way_28"/>
<trip id="196" depart="435.5512" fromJunction="4way_34" toJunction="3way_17"/>
<trip id="197" depart="437.7734" fromJunction="4way_64" toJunction="4way_42"/>
<trip id="198" depart="439.99559999999997" fromJunction="3way_76" toJunction="3way_27"/>
<trip id="199" depart="442.2178" fromJunction="3way_3" toJunction="4way_57"/>
<trip id="200" depart="444.44" fromJunction="4way_55" toJunction="3way_2"/>
<trip id="201" depart="446.6622" fromJunction="3way_74" toJunction="3way_6"/>
<trip id="202" depart="448.88439999999997" fromJunction="3way_74" toJunction="3way_76"/>
<trip id="203" depart="451.1066" fromJunction="3way_1" toJunction="3way_44"/>
<trip id="204" depart="453.3288" fromJunction="4way_57" toJunction="3way_26"/>
<trip id="205" depart="455.551" fromJunction="4way_70" toJunction="4way_61"/>
<trip id="206" depart="457.7732" fromJunction="3way_62" toJunction="4way_37"/>
<trip id="207" depart="459.9954" fromJunction="4way_29" toJunction="4way_13"/>
<trip id="208" depart="462.2176" fromJunction="3way_6" toJunction="4way_70"/>
<trip id="209" depart="464.4398" fromJunction="3way_54" toJunction="4way_50"/>
<trip id="210" depart="466.662" fromJunction="4way_31" toJunction="3way_75"/>
<trip id="211" depart="468.88419999999996" fromJunction="4way_31" toJunction="3way_75"/>
<trip id="212" depart="471.1064" fromJunction="4way_46" toJunction="4way_47"/>
<trip id="213" depart="473.3286" fromJunction="3way_54" toJunction="4way_12"/>
<trip id="214" depart="475.5508" fromJunction="4way_37" toJunction="4way_58"/>
<trip id="215" depart="477.77299999999997" fromJunction="4way_15" toJunction="3way_9"/>
<trip id="216" depart="479.9952" fromJunction="3way_4" toJunction="4way_25"/>
<trip id="217" depart="482.2174" fromJunction="3way_18" toJunction="3way_76"/>
<trip id="218" depart="484.4396" fromJunction="4way_61" toJunction="4way_68"/>
<trip id="219" depart="486.66179999999997" fromJunction="4way_69" toJunction="4way_52"/>
<trip id="220" depart="488.884" fromJunction="4way_70" toJunction="3way_54"/>
<trip id="221" depart="491.1062" fromJunction="3way_26" toJunction="3way_74"/>
<trip id="222" depart="493.3284" fromJunction="3way_76" toJunction="4way_43"/>
<trip id="223" depart="495.5506" fromJunction="3way_5" toJunction="4way_49"/>
<trip id="224" depart="497.77279999999996" fromJunction="4way_51" toJunction="4way_14"/>
<trip id="225" depart="499.995" fromJunction="4way_19" toJunction="3way_73"/>
<trip id="226" depart="502.2172" fromJunction="4way_23" toJunction="4way_10"/>
<trip id="227" depart="504.4394" fromJunction="3way_71" toJunction="3way_75"/>
<trip id="228" depart="506.66159999999996" fromJunction="3way_45" toJunction="4way_64"/>
<trip id="229" depart="508.8838" fromJunction="3way_75" toJunction="4way_24"/>
<trip id="230" depart="511.106" fromJunction="4way_34" toJunction="4way_38"/>
<trip id="231" depart="513.3282" fromJunction="4way_42" toJunction="4way_66"/>
<trip id="232" depart="515.5504" fromJunction="4way_23" toJunction="4way_34"/>
<trip id="233" depart="517.7726" fromJunction="4way_52" toJunction="4way_49"/>
<trip id="234" depart="519.9947999999999" fromJunction="4way_64" toJunction="4way_70"/>
<trip id="235" depart="522.217" fromJunction="3way_54" toJunction="3way_6"/>
<trip id="236" depart="524.4392" fromJunction="4way_46" toJunction="3way_53"/>
<trip id="237" depart="526.6614" fromJunction="4way_48" toJunction="3way_44"/>
<trip id="238" depart="528.8836" fromJunction="4way_60" toJunction="4way_19"/>
<trip id="239" depart="531.1058" fromJunction="4way_12" toJunction="4way_52"/>
<trip id="240" depart="533.328" fromJunction="4way_39" toJunction="3way_63"/>
<trip id="241" depart="535.5502" fromJunction="4way_37" toJunction="4way_69"/>
<trip id="242" depart="537.7724" fromJunction="3way_73" toJunction="4way_12"/>
<trip id="243" depart="539.9946" fromJunction="4way_28" toJunction="4way_11"/>
<trip id="244" depart="542.2168" fromJunction="4way_38" toJunction="3way_74"/>
<trip id="245" depart="544.439" fromJunction="4way_10" toJunction="3way_45"/>
<trip id="246" depart="546.6612" fromJunction="4way_23" toJunction="4way_56"/>
<trip id="247" depart="548.8833999999999" fromJunction="4way_25" toJunction="3way_27"/>
<trip id="248" depart="551.1056" fromJunction="3way_4" toJunction="4way_42"/>
<trip id="249" depart="553.3278" fromJunction="4way_64" toJunction="3way_74"/>
<trip id="250" depart="555.55" fromJunction="3way_18" toJunction="3way_26"/>
<trip id="251" depart="557.7722" fromJunction="4way_40" toJunction="4way_14"/>
<trip id="252" depart="559.9944" fromJunction="4way_58" toJunction="4way_57"/>
<trip id="253" depart="562.2166" fromJunction="3way_18" toJunction="3way_78"/>
<trip id="254" depart="564.4388" fromJunction="4way_51" toJunction="4way_40"/>
<trip id="255" depart="566.661" fromJunction="3way_63" toJunction="4way_65"/>
<trip id="256" depart="568.8832" fromJunction="4way_58" toJunction="3way_3"/>
<trip id="257" depart="571.1054" fromJunction="4way_10" toJunction="3way_1"/>
<trip id="258" depart="573.3276" fromJunction="4way_25" toJunction="4way_56"/>
<trip id="259" depart="575.5498" fromJunction="4way_37" toJunction="3way_7"/>
<trip id="260" depart="577.7719999999999" fromJunction="3way_18" toJunction="3way_2"/>
<trip id="261" depart="579.9942" fromJunction="3way_63" toJunction="4way_57"/>
<trip id="262" depart="582.2164" fromJunction="3way_26" toJunction="3way_77"/>
<trip id="263" depart="584.4386" fromJunction="4way_49" toJunction="4way_30"/>
<trip id="264" depart="586.6608" fromJunction="4way_43" toJunction="4way_31"/>
<trip id="265" depart="588.883" fromJunction="4way_13" toJunction="3way_1"/>
<trip id="266" depart="591.1052" fromJunction="4way_39" toJunction="4way_48"/>
<trip id="267" depart="593.3274" fromJunction="3way_2" toJunction="4way_52"/>
<trip id="268" depart="595.5495999999999" fromJunction="4way_68" toJunction="4way_49"/>
<trip id="269" depart="597.7718" fromJunction="3way_27" toJunction="4way_47"/>
<trip id="270" depart="599.994" fromJunction="3way_17" toJunction="4way_50"/>
<trip id="271" depart="602.2162" fromJunction="4way_56" toJunction="4way_64"/>
<trip id="272" depart="604.4384" fromJunction="3way_7" toJunction="4way_49"/>
<trip id="273" depart="606.6605999999999" fromJunction="4way_37" toJunction="3way_76"/>
<trip id="274" depart="608.8828" fromJunction="4way_60" toJunction="4way_57"/>
<trip id="275" depart="611.105" fromJunction="3way_44" toJunction="4way_57"/>
<trip id="276" depart="613.3272" fromJunction="4way_51" toJunction="4way_61"/>
<trip id="277" depart="615.5494" fromJunction="4way_25" toJunction="4way_38"/>
<trip id="278" depart="617.7716" fromJunction="4way_25" toJunction="4way_65"/>
<trip id="279" depart="619.9938" fromJunction="4way_52" toJunction="4way_15"/>
<trip id="280" depart="622.216" fromJunction="3way_3" toJunction="4way_16"/>
<trip id="281" depart="624.4381999999999" fromJunction="4way_19" toJunction="3way_71"/>
<trip id="282" depart="626.6604" fromJunction="3way_45" toJunction="4way_43"/>
<trip id="283" depart="628.8826" fromJunction="4way_60" toJunction="3way_62"/>
<trip id="284" depart="631.1048" fromJunction="4way_69" toJunction="4way_64"/>
<trip id="285" depart="633.327" fromJunction="4way_22" toJunction="3way_62"/>
<trip id="286" depart="635.5492" fromJunction="3way_6" toJunction="4way_55"/>
<trip id="287" depart="637.7714" fromJunction="3way_74" toJunction="4way_49"/>
<trip id="288" depart="639.9936" fromJunction="3way_5" toJunction="3way_4"/>
<trip id="289" depart="642.2158" fromJunction="4way_69" toJunction="3way_5"/>
<trip id="290" depart="644.438" fromJunction="4way_69" toJunction="4way_14"/>
<trip id="291" depart="646.6602" fromJunction="4way_56" toJunction="4way_31"/>
<trip id="292" depart="648.8824" fromJunction="4way_70" toJunction="3way_45"/>
<trip id="293" depart="651.1046" fromJunction="4way_20" toJunction="3way_9"/>
<trip id="294" depart="653.3267999999999" fromJunction="4way_61" toJunction="4way_19"/>
<trip id="295" depart="655.549" fromJunction="3way_27" toJunction="3way_71"/>
<trip id="296" depart="657.7712" fromJunction="3way_5" toJunction="4way_40"/>
<trip id="297" depart="659.9934" fromJunction="4way_20" toJunction="4way_48"/>
<trip id="298" depart="662.2156" fromJunction="3way_75" toJunction="3way_63"/>
<trip id="299" depart="664.4378" fromJunction="4way_10" toJunction="4way_47"/>
<trip id="300" depart="666.66" fromJunction="3way_27" toJunction="4way_11"/>
<trip id="301" depart="668.8822" fromJunction="3way_44" toJunction="4way_52"/>
<trip id="302" depart="671.1043999999999" fromJunction="3way_18" toJunction="3way_17"/>
<trip id="303" depart="673.3266" fromJunction="4way_22" toJunction="4way_39"/>
<trip id="304" depart="675.5488" fromJunction="4way_70" toJunction="4way_28"/>
<trip id="305" depart="677.771" fromJunction="4way_67" toJunction="3way_9"/>
<trip id="306" depart="679.9932" fromJunction="4way_68" toJunction="4way_13"/>
<trip id="307" depart="682.2153999999999" fromJunction="4way_60" toJunction="4way_61"/>
<trip id="308" depart="684.4376" fromJunction="4way_49" toJunction="4way_32"/>
<trip id="309" depart="686.6598" fromJunction="3way_53" toJunction="3way_27"/>
<trip id="310" depart="688.882" fromJunction="3way_75" toJunction="3way_5"/>
<trip id="311" depart="691.1042" fromJunction="4way_56" toJunction="4way_55"/>
<trip id="312" depart="693.3264" fromJunction="4way_43" toJunction="4way_41"/>
<trip id="313" depart="695.5486" fromJunction="3way_26" toJunction="3way_35"/>
<trip id="314" depart="697.7708" fromJunction="4way_23" toJunction="4way_39"/>
<trip id="315" depart="699.9929999999999" fromJunction="4way_34" toJunction="4way_33"/>
<trip id="316" depart="702.2152" fromJunction="4way_28" toJunction="4way_61"/>
<trip id="317" depart="704.4374" fromJunction="3way_53" toJunction="4way_19"/>
<trip id="318" depart="706.6596" fromJunction="4way_22" toJunction="4way_40"/>
<trip id="319" depart="708.8818" fromJunction="3way_17" toJunction="4way_42"/>
<trip id="320" depart="711.104" fromJunction="4way_30" toJunction="4way_38"/>
<trip id="321" depart="713.3262" fromJunction="3way_71" toJunction="3way_75"/>
<trip id="322" depart="715.5484" fromJunction="3way_5" toJunction="4way_42"/>
<trip id="323" depart="717.7706" fromJunction="3way_26" toJunction="4way_20"/>
<trip id="324" depart="719.9928" fromJunction="4way_61" toJunction="4way_11"/>
<trip id="325" depart="722.215" fromJunction="4way_33" toJunction="4way_46"/>
<trip id="326" depart="724.4372" fromJunction="3way_73" toJunction="3way_35"/>
<trip id="327" depart="726.6594" fromJunction="4way_28" toJunction="4way_37"/>
<trip id="328" depart="728.8815999999999" fromJunction="3way_18" toJunction="4way_31"/>
<trip id="329" depart="731.1038" fromJunction="4way_13" toJunction="4way_58"/>
<trip id="330" depart="733.326" fromJunction="4way_55" toJunction="4way_28"/>
<trip id="331" depart="735.5482" fromJunction="3way_6" toJunction="4way_57"/>
<trip id="332" depart="737.7704" fromJunction="4way_22" toJunction="4way_15"/>
<trip id="333" depart="739.9926" fromJunction="4way_65" toJunction="4way_67"/>
<trip id="334" depart="742.2148" fromJunction="4way_37" toJunction="3way_26"/>
<trip id="335" depart="744.437" fromJunction="3way_36" toJunction="4way_37"/>
<trip id="336" depart="746.6591999999999" fromJunction="4way_14" toJunction="3way_3"/>
<trip id="337" depart="748.8814" fromJunction="4way_48" toJunction="3way_26"/>
<trip id="338" depart="751.1036" fromJunction="4way_66" toJunction="4way_58"/>
<trip id="339" depart="753.3258" fromJunction="3way_17" toJunction="4way_43"/>
<trip id="340" depart="755.548" fromJunction="3way_3" toJunction="4way_42"/>
<trip id="341" depart="757.7701999999999" fromJunction="4way_37" toJunction="4way_65"/>
<trip id="342" depart="759.9924" fromJunction="4way_10" toJunction="4way_56"/>
<trip id="343" depart="762.2146" fromJunction="3way_2" toJunction="3way_79"/>
<trip id="344" depart="764.4368" fromJunction="4way_24" toJunction="4way_47"/>
<trip id="345" depart="766.659" fromJunction="3way_76" toJunction="4way_10"/>
<trip id="346" depart="768.8812" fromJunction="3way_17" toJunction="3way_76"/>
<trip id="347" depart="771.1034" fromJunction="3way_6" toJunction="3way_73"/>
<trip id="348" depart="773.3256" fromJunction="4way_33" toJunction="3way_6"/>
<trip id="349" depart="775.5477999999999" fromJunction="4way_21" toJunction="3way_62"/>
<trip id="350" depart="777.77" fromJunction="4way_11" toJunction="4way_41"/>
<trip id="351" depart="779.9922" fromJunction="3way_78" toJunction="3way_53"/>
<trip id="352" depart="782.2144" fromJunction="4way_56" toJunction="4way_55"/>
<trip id="353" depart="784.4366" fromJunction="4way_50" toJunction="3way_18"/>
<trip id="354" depart="786.6587999999999" fromJunction="4way_25" toJunction="4way_23"/>
<trip id="355" depart="788.881" fromJunction="4way_60" toJunction="3way_3"/>
<trip id="356" depart="791.1032" fromJunction="4way_51" toJunction="4way_28"/>
<trip id="357" depart="793.3254" fromJunction="4way_70" toJunction="4way_49"/>
<trip id="358" depart="795.5476" fromJunction="4way_10" toJunction="4way_32"/>
<trip id="359" depart="797.7698" fromJunction="4way_10" toJunction="4way_38"/>
<trip id="360" depart="799.992" fromJunction="3way_73" toJunction="4way_10"/>
<trip id="361" depart="802.2142" fromJunction="4way_40" toJunction="4way_38"/>
<trip id="362" depart="804.4363999999999" fromJunction="4way_56" toJunction="3way_63"/>
<trip id="363" depart="806.6586" fromJunction="3way_62" toJunction="3way_35"/>
<trip id="364" depart="808.8808" fromJunction="4way_52" toJunction="3way_4"/>
<trip id="365" depart="811.103" fromJunction="3way_71" toJunction="3way_1"/>
<trip id="366" depart="813.3252" fromJunction="3way_7" toJunction="4way_57"/>
<trip id="367" depart="815.5474" fromJunction="4way_67" toJunction="4way_51"/>
<trip id="368" depart="817.7696" fromJunction="4way_47" toJunction="4way_52"/>
<trip id="369" depart="819.9918" fromJunction="4way_12" toJunction="3way_45"/>
<trip id="370" depart="822.2139999999999" fromJunction="4way_56" toJunction="4way_25"/>
<trip id="371" depart="824.4362" fromJunction="4way_51" toJunction="3way_73"/>
<trip id="372" depart="826.6584" fromJunction="3way_1" toJunction="4way_10"/>
<trip id="373" depart="828.8806" fromJunction="3way_36" toJunction="3way_74"/>
<trip id="374" depart="831.1028" fromJunction="4way_11" toJunction="4way_42"/>