<?xml version="1.0" encoding="UTF-8"?>
<edges xmlns:xsi="http://www.w3.org/2001/XMLSchema-instance" xsi:noNamespaceSchemaLocation="http://sumo.dlr.de/xsd/edges_file.xsd">
    <edge from="3way_1" id="1_3way_1to3way_10" to="3way_10" spreadType="roadCenter" numLanes="1" priority="1" shape="200.00,0.00 0.00,0.00 0.00,-200.00"/>
    <edge from="3way_10" id="1_3way_10to3way_1" to="3way_1" spreadType="roadCenter" numLanes="1" priority="1" shape="0.00,-200.00 0.00,0.00 200.00,0.00"/>
    <edge from="3way_1" id="2_3way_1to3way_2" to="3way_2" spreadType="roadCenter" numLanes="1" priority="1"/>
    <edge from="3way_2" id="2_3way_2to3way_1" to="3way_1" spreadType="roadCenter" numLanes="1" priority="1"/>
    <edge from="3way_1" id="3_3way_1to4way_11" to="4way_11" spreadType="roadCenter" numLanes="1" priority="0"/>
    <edge from="4way_11" id="3_4way_11to3way_1" to="3way_1" spreadType="roadCenter" numLanes="1" priority="0"/>
    <edge from="3way_10" id="4_3way_10to3way_20" to="3way_20" spreadType="roadCenter" numLanes="1" priority="1"/>
    <edge from="3way_20" id="4_3way_20to3way_10" to="3way_10" spreadType="roadCenter" numLanes="1" priority="1"/>
    <edge from="3way_10" id="5_3way_10to4way_11" to="4way_11" spreadType="roadCenter" numLanes="1" priority="0"/>
    <edge from="4way_11" id="5_4way_11to3way_10" to="3way_10" spreadType="roadCenter" numLanes="1" priority="0"/>
    <edge from="3way_19" id="6_3way_19to3way_29" to="3way_29" spreadType="roadCenter" numLanes="1" priority="1"/>
    <edge from="3way_29" id="6_3way_29to3way_19" to="3way_19" spreadType="roadCenter" numLanes="1" priority="1"/>
    <edge from="3way_8" id="7_3way_8to3way_19" to="3way_19" spreadType="roadCenter" numLanes="1" priority="1" shape="1600.00,0.00 1800.00,0.00 1800.00,-200.00"/>
    <edge from="3way_19" id="7_3way_19to3way_8" to="3way_8" spreadType="roadCenter" numLanes="1" priority="1" shape="1800.00,-200.00 1800.00,0.00 1600.00,0.00"/>
    <edge from="3way_19" id="8_3way_19to4way_18" to="4way_18" spreadType="roadCenter" numLanes="1" priority="0"/>
    <edge from="4way_18" id="8_4way_18to3way_19" to="3way_19" spreadType="roadCenter" numLanes="1" priority="0"/>
    <edge from="3way_2" id="9_3way_2to3way_3" to="3way_3" spreadType="roadCenter" numLanes="1" priority="1"/>
    <edge from="3way_3" id="9_3way_3to3way_2" to="3way_2" spreadType="roadCenter" numLanes="1" priority="1"/>
    <edge from="3way_2" id="10_3way_2to4way_12" to="4way_12" spreadType="roadCenter" numLanes="1" priority="0"/>
    <edge from="4way_12" id="10_4way_12to3way_2" to="3way_2" spreadType="roadCenter" numLanes="1" priority="0"/>
    <edge from="3way_20" id="11_3way_20to3way_30" to="3way_30" spreadType="roadCenter" numLanes="1" priority="1"/>
    <edge from="3way_30" id="11_3way_30to3way_20" to="3way_20" spreadType="roadCenter" numLanes="1" priority="1"/>
    <edge from="3way_20" id="12_3way_20to4way_21" to="4way_21" spreadType="roadCenter" numLanes="1" priority="0"/>
    <edge from="4way_21" id="12_4way_21to3way_20" to="3way_20" spreadType="roadCenter" numLanes="1" priority="0"/>
    <edge from="3way_29" id="13_3way_29to3way_39" to="3way_39" spreadType="roadCenter" numLanes="1" priority="1"/>
    <edge from="3way_39" id="13_3way_39to3way_29" to="3way_29" spreadType="roadCenter" numLanes="1" priority="1"/>
    <edge from="3way_29" id="14_3way_29to4way_28" to="4way_28" spreadType="roadCenter" numLanes="1" priority="0"/>
    <edge from="4way_28" id="14_4way_28to3way_29" to="3way_29" spreadType="roadCenter" numLanes="1" priority="0"/>
    <edge from="3way_3" id="15_3way_3to3way_4" to="3way_4" spreadType="roadCenter" numLanes="1" priority="1"/>
    <edge from="3way_4" id="15_3way_4to3way_3" to="3way_3" spreadType="roadCenter" numLanes="1" priority="1"/>
    <edge from="3way_3" id="16_3way_3to4way_13" to="4way_13" spreadType="roadCenter" numLanes="1" priority="0"/>
    <edge from="4way_13" id="16_4way_13to3way_3" to="3way_3" spreadType="roadCenter" numLanes="1" priority="0"/>
    <edge from="3way_30" id="17_3way_30to3way_40" to="3way_40" spreadType="roadCenter" numLanes="1" priority="1"/>
    <edge from="3way_40" id="17_3way_40to3way_30" to="3way_30" spreadType="roadCenter" numLanes="1" priority="1"/>
    <edge from="3way_30" id="18_3way_30to4way_31" to="4way_31" spreadType="roadCenter" numLanes="1" priority="0"/>
    <edge from="4way_31" id="18_4way_31to3way_30" to="3way_30" spreadType="roadCenter" numLanes="1" priority="0"/>
    <edge from="3way_39" id="19_3way_39to3way_49" to="3way_49" spreadType="roadCenter" numLanes="1" priority="1"/>
    <edge from="3way_49" id="19_3way_49to3way_39" to="3way_39" spreadType="roadCenter" numLanes="1" priority="1"/>
    <edge from="3way_39" id="20_3way_39to4way_38" to="4way_38" spreadType="roadCenter" numLanes="1" priority="0"/>
    <edge from="4way_38" id="20_4way_38to3way_39" to="3way_39" spreadType="roadCenter" numLanes="1" priority="0"/>
    <edge from="3way_4" id="21_3way_4to3way_5" to="3way_5" spreadType="roadCenter" numLanes="1" priority="1"/>
    <edge from="3way_5" id="21_3way_5to3way_4" to="3way_4" spreadType="roadCenter" numLanes="1" priority="1"/>
    <edge from="3way_4" id="22_3way_4to4way_14" to="4way_14" spreadType="roadCenter" numLanes="1" priority="0"/>
    <edge from="4way_14" id="22_4way_14to3way_4" to="3way_4" spreadType="roadCenter" numLanes="1" priority="0"/>
    <edge from="3way_40" id="23_3way_40to3way_50" to="3way_50" spreadType="roadCenter" numLanes="1" priority="1"/>
    <edge from="3way_50" id="23_3way_50to3way_40" to="3way_40" spreadType="roadCenter" numLanes="1" priority="1"/>
    <edge from="3way_40" id="24_3way_40to4way_41" to="4way_41" spreadType="roadCenter" numLanes="1" priority="0"/>
    <edge from="4way_41" id="24_4way_41to3way_40" to="3way_40" spreadType="roadCenter" numLanes="1" priority="0"/>
    <edge from="3way_49" id="25_3way_49to3way_59" to="3way_59" spreadType="roadCenter" numLanes="1" priority="1"/>
    <edge from="3way_59" id="25_3way_59to3way_49" to="3way_49" spreadType="roadCenter" numLanes="1" priority="1"/>
    <edge from="3way_49" id="26_3way_49to4way_48" to="4way_48" spreadType="roadCenter" numLanes="1" priority="0"/>
    <edge from="4way_48" id="26_4way_48to3way_49" to="3way_49" spreadType="roadCenter" numLanes="1" priority="0"/>
    <edge from="3way_5" id="27_3way_5to3way_6" to="3way_6" spreadType="roadCenter" numLanes="1" priority="1"/>
    <edge from="3way_6" id="27_3way_6to3way_5" to="3way_5" spreadType="roadCenter" numLanes="1" priority="1"/>
    <edge from="3way_5" id="28_3way_5to4way_15" to="4way_15" spreadType="roadCenter" numLanes="1" priority="0"/>
    <edge from="4way_15" id="28_4way_15to3way_5" to="3way_5" spreadType="roadCenter" numLanes="1" priority="0"/>
    <edge from="3way_50" id="29_3way_50to3way_60" to="3way_60" spreadType="roadCenter" numLanes="1" priority="1"/>
    <edge from="3way_60" id="29_3way_60to3way_50" to="3way_50" spreadType="roadCenter" numLanes="1" priority="1"/>
    <edge from="3way_50" id="30_3way_50to4way_51" to="4way_51" spreadType="roadCenter" numLanes="1" priority="0"/>
    <edge from="4way_51" id="30_4way_51to3way_50" to="3way_50" spreadType="roadCenter" numLanes="1" priority="0"/>
    <edge from="3way_59" id="31_3way_59to3way_69" to="3way_69" spreadType="roadCenter" numLanes="1" priority="1"/>
    <edge from="3way_69" id="31_3way_69to3way_59" to="3way_59" spreadType="roadCenter" numLanes="1" priority="1"/>
    <edge from="3way_59" id="32_3way_59to4way_58" to="4way_58" spreadType="roadCenter" numLanes="1" priority="0"/>
    <edge from="4way_58" id="32_4way_58to3way_59" to="3way_59" spreadType="roadCenter" numLanes="1" priority="0"/>
    <edge from="3way_6" id="33_3way_6to3way_7" to="3way_7" spreadType="roadCenter" numLanes="1" priority="1"/>
    <edge from="3way_7" id="33_3way_7to3way_6" to="3way_6" spreadType="roadCenter" numLanes="1" priority="1"/>
    <edge from="3way_6" id="34_3way_6to4way_16" to="4way_16" spreadType="roadCenter" numLanes="1" priority="0"/>
    <edge from="4way_16" id="34_4way_16to3way_6" to="3way_6" spreadType="roadCenter" numLanes="1" priority="0"/>
    <edge from="3way_60" id="35_3way_60to3way_70" to="3way_70" spreadType="roadCenter" numLanes="1" priority="1"/>
    <edge from="3way_70" id="35_3way_70to3way_60" to="3way_60" spreadType="roadCenter" numLanes="1" priority="1"/>
    <edge from="3way_60" id="36_3way_60to4way_61" to="4way_61" spreadType="roadCenter" numLanes="1" priority="0"/>
    <edge from="4way_61" id="36_4way_61to3way_60" to="3way_60" spreadType="roadCenter" numLanes="1" priority="0"/>
    <edge from="3way_69" id="37_3way_69to3way_79" to="3way_79" spreadType="roadCenter" numLanes="1" priority="1"/>
    <edge from="3way_79" id="37_3way_79to3way_69" to="3way_69" spreadType="roadCenter" numLanes="1" priority="1"/>
    <edge from="3way_69" id="38_3way_69to4way_68" to="4way_68" spreadType="roadCenter" numLanes="1" priority="0"/>
    <edge from="4way_68" id="38_4way_68to3way_69" to="3way_69" spreadType="roadCenter" numLanes="1" priority="0"/>
    <edge from="3way_7" id="39_3way_7to3way_8" to="3way_8" spreadType="roadCenter" numLanes="1" priority="1"/>
    <edge from="3way_8" id="39_3way_8to3way_7" to="3way_7" spreadType="roadCenter" numLanes="1" priority="1"/>
    <edge from="3way_7" id="40_3way_7to4way_17" to="4way_17" spreadType="roadCenter" numLanes="1" priority="0"/>
    <edge from="4way_17" id="40_4way_17to3way_7" to="3way_7" spreadType="roadCenter" numLanes="1" priority="0"/>
    <edge from="3way_70" id="41_3way_70to3way_80" to="3way_80" spreadType="roadCenter" numLanes="1" priority="1"/>
    <edge from="3way_80" id="41_3way_80to3way_70" to="3way_70" spreadType="roadCenter" numLanes="1" priority="1"/>
    <edge from="3way_70" id="42_3way_70to4way_71" to="4way_71" spreadType="roadCenter" numLanes="1" priority="0"/>
    <edge from="4way_71" id="42_4way_71to3way_70" to="3way_70" spreadType="roadCenter" numLanes="1" priority="0"/>
    <edge from="3way_79" id="43_3way_79to3way_89" to="3way_89" spreadType="roadCenter" numLanes="1" priority="1"/>
    <edge from="3way_89" id="43_3way_89to3way_79" to="3way_79" spreadType="roadCenter" numLanes="1" priority="1"/>
    <edge from="3way_79" id="44_3way_79to4way_78" to="4way_78" spreadType="roadCenter" numLanes="1" priority="0"/>
    <edge from="4way_78" id="44_4way_78to3way_79" to="3way_79" spreadType="roadCenter" numLanes="1" priority="0"/>
    <edge from="3way_8" id="45_3way_8to4way_18" to="4way_18" spreadType="roadCenter" numLanes="1" priority="0"/>
    <edge from="4way_18" id="45_4way_18to3way_8" to="3way_8" spreadType="roadCenter" numLanes="1" priority="0"/>
    <edge from="3way_91" id="46_3way_91to3way_80" to="3way_80" spreadType="roadCenter" numLanes="1" priority="1" shape="200.00,-1800.00 0.00,-1800.00 0.00,-1600.00"/>
    <edge from="3way_80" id="46_3way_80to3way_91" to="3way_91" spreadType="roadCenter" numLanes="1" priority="1" shape="0.00,-1600.00 0.00,-1800.00 200.00,-1800.00"/>
    <edge from="3way_80" id="47_3way_80to4way_81" to="4way_81" spreadType="roadCenter" numLanes="1" priority="0"/>
    <edge from="4way_81" id="47_4way_81to3way_80" to="3way_80" spreadType="roadCenter" numLanes="1" priority="0"/>
    <edge from="3way_89" id="48_3way_89to3way_98" to="3way_98" spreadType="roadCenter" numLanes="1" priority="1" shape="1800.00,-1600.00 1800.00,-1800.00 1600.00,-1800.00"/>
    <edge from="3way_98" id="48_3way_98to3way_89" to="3way_89" spreadType="roadCenter" numLanes="1" priority="1" shape="1600.00,-1800.00 1800.00,-1800.00 1800.00,-1600.00"/>
    <edge from="3way_89" id="49_3way_89to4way_88" to="4way_88" spreadType="roadCenter" numLanes="1" priority="0"/>
    <edge from="4way_88" id="49_4way_88to3way_89" to="3way_89" spreadType="roadCenter" numLanes="1" priority="0"/>
    <edge from="3way_91" id="50_3way_91to3way_92" to="3way_92" spreadType="roadCenter" numLanes="1" priority="1"/>
    <edge from="3way_92" id="50_3way_92to3way_91" to="3way_91" spreadType="roadCenter" numLanes="1" priority="1"/>
    <edge from="3way_91" id="51_3way_91to4way_81" to="4way_81" spreadType="roadCenter" numLanes="1" priority="0"/>
    <edge from="4way_81" id="51_4way_81to3way_91" to="3way_91" spreadType="roadCenter" numLanes="1" priority="0"/>
    <edge from="3way_92" id="52_3way_92to3way_93" to="3way_93" spreadType="roadCenter" numLanes="1" priority="1"/>
    <edge from="3way_93" id="52_3way_93to3way_92" to="3way_92" spreadType="roadCenter" numLanes="1" priority="1"/>
    <edge from="3way_92" id="53_3way_92to4way_82" to="4way_82" spreadType="roadCenter" numLanes="1" priority="0"/>
    <edge from="4way_82" id="53_4way_82to3way_92" to="3way_92" spreadType="roadCenter" numLanes="1" priority="0"/>
    <edge from="3way_93" id="54_3way_93to3way_94" to="3way_94" spreadType="roadCenter" numLanes="1" priority="1"/>
    <edge from="3way_94" id="54_3way_94to3way_93" to="3way_93" spreadType="roadCenter" numLanes="1" priority="1"/>
    <edge from="3way_93" id="55_3way_93to4way_83" to="4way_83" spreadType="roadCenter" numLanes="1" priority="0"/>
    <edge from="4way_83" id="55_4way_83to3way_93" to="3way_93" spreadType="roadCenter" numLanes="1" priority="0"/>
    <edge from="3way_94" id="56_3way_94to3way_95" to="3way_95" spreadType="roadCenter" numLanes="1" priority="1"/>
    <edge from="3way_95" id="56_3way_95to3way_94" to="3way_94" spreadType="roadCenter" numLanes="1" priority="1"/>
    <edge from="3way_94" id="57_3way_94to4way_84" to="4way_84" spreadType="roadCenter" numLanes="1" priority="0"/>
    <edge from="4way_84" id="57_4way_84to3way_94" to="3way_94" spreadType="roadCenter" numLanes="1" priority="0"/>
    <edge from="3way_95" id="58_3way_95to3way_96" to="3way_96" spreadType="roadCenter" numLanes="1" priority="1"/>
    <edge from="3way_96" id="58_3way_96to3way_95" to="3way_95" spreadType="roadCenter" numLanes="1" priority="1"/>
    <edge from="3way_95" id="59_3way_95to4way_85" to="4way_85" spreadType="roadCenter" numLanes="1" priority="0"/>
    <edge from="4way_85" id="59_4way_85to3way_95" to="3way_95" spreadType="roadCenter" numLanes="1" priority="0"/>
    <edge from="3way_96" id="60_3way_96to3way_97" to="3way_97" spreadType="roadCenter" numLanes="1" priority="1"/>
    <edge from="3way_97" id="60_3way_97to3way_96" to="3way_96" spreadType="roadCenter" numLanes="1" priority="1"/>
    <edge from="3way_96" id="61_3way_96to4way_86" to="4way_86" spreadType="roadCenter" numLanes="1" priority="0"/>
    <edge from="4way_86" id="61_4way_86to3way_96" to="3way_96" spreadType="roadCenter" numLanes="1" priority="0"/>
    <edge from="3way_97" id="62_3way_97to3way_98" to="3way_98" spreadType="roadCenter" numLanes="1" priority="1"/>
    <edge from="3way_98" id="62_3way_98to3way_97" to="3way_97" spreadType="roadCenter" numLanes="1" priority="1"/>
    <edge from="3way_97" id="63_3way_97to4way_87" to="4way_87" spreadType="roadCenter" numLanes="1" priority="0"/>
    <edge from="4way_87" id="63_4way_87to3way_97" to="3way_97" spreadType="roadCenter" numLanes="1" priority="0"/>
    <edge from="3way_98" id="64_3way_98to4way_88" to="4way_88" spreadType="roadCenter" numLanes="1" priority="0"/>
    <edge from="4way_88" id="64_4way_88to3way_98" to="3way_98" spreadType="roadCenter" numLanes="1" priority="0"/>
    <edge from="4way_11" id="65_4way_11to4way_12" to="4way_12" spreadType="roadCenter" numLanes="1" priority="1"/>
    <edge from="4way_12" id="65_4way_12to4way_11" to="4way_11" spreadType="roadCenter" numLanes="1" priority="1"/>
    <edge from="4way_11" id="66_4way_11to4way_21" to="4way_21" spreadType="roadCenter" numLanes="1" priority="1"/>
    <edge from="4way_21" id="66_4way_21to4way_11" to="4way_11" spreadType="roadCenter" numLanes="1" priority="1"/>
    <edge from="4way_12" id="67_4way_12to4way_13" to="4way_13" spreadType="roadCenter" numLanes="1" priority="1"/>
    <edge from="4way_13" id="67_4way_13to4way_12" to="4way_12" spreadType="roadCenter" numLanes="1" priority="1"/>
    <edge from="4way_12" id="68_4way_12to4way_22" to="4way_22" spreadType="roadCenter" numLanes="1" priority="1"/>
    <edge from="4way_22" id="68_4way_22to4way_12" to="4way_12" spreadType="roadCenter" numLanes="1" priority="1"/>
    <edge from="4way_13" id="69_4way_13to4way_14" to="4way_14" spreadType="roadCenter" numLanes="1" priority="1"/>
    <edge from="4way_14" id="69_4way_14to4way_13" to="4way_13" spreadType="roadCenter" numLanes="1" priority="1"/>
    <edge from="4way_13" id="70_4way_13to4way_23" to="4way_23" spreadType="roadCenter" numLanes="1" priority="1"/>
    <edge from="4way_23" id="70_4way_23to4way_13" to="4way_13" spreadType="roadCenter" numLanes="1" priority="1"/>
    <edge from="4way_14" id="71_4way_14to4way_15" to="4way_15" spreadType="roadCenter" numLanes="1" priority="1"/>
    <edge from="4way_15" id="71_4way_15to4way_14" to="4way_14" spreadType="roadCenter" numLanes="1" priority="1"/>
    <edge from="4way_14" id="72_4way_14to4way_24" to="4way_24" spreadType="roadCenter" numLanes="1" priority="1"/>
    <edge from="4way_24" id="72_4way_24to4way_14" to="4way_14" spreadType="roadCenter" numLanes="1" priority="1"/>
    <edge from="4way_15" id="73_4way_15to4way_16" to="4way_16" spreadType="roadCenter" numLanes="1" priority="1"/>
    <edge from="4way_16" id="73_4way_16to4way_15" to="4way_15" spreadType="roadCenter" numLanes="1" priority="1"/>
    <edge from="4way_15" id="74_4way_15to4way_25" to="4way_25" spreadType="roadCenter" numLanes="1" priority="1"/>
    <edge from="4way_25" id="74_4way_25to4way_15" to="4way_15" spreadType="roadCenter" numLanes="1" priority="1"/>
    <edge from="4way_16" id="75_4way_16to4way_17" to="4way_17" spreadType="roadCenter" numLanes="1" priority="1"/>
    <edge from="4way_17" id="75_4way_17to4way_16" to="4way_16" spreadType="roadCenter" numLanes="1" priority="1"/>
    <edge from="4way_16" id="76_4way_16to4way_26" to="4way_26" spreadType="roadCenter" numLanes="1" priority="1"/>
    <edge from="4way_26" id="76_4way_26to4way_16" to="4way_16" spreadType="roadCenter" numLanes="1" priority="1"/>
    <edge from="4way_17" id="77_4way_17to4way_18" to="4way_18" spreadType="roadCenter" numLanes="1" priority="1"/>
    <edge from="4way_18" id="77_4way_18to4way_17" to="4way_17" spreadType="roadCenter" numLanes="1" priority="1"/>
    <edge from="4way_17" id="78_4way_17to4way_27" to="4way_27" spreadType="roadCenter" numLanes="1" priority="1"/>
    <edge from="4way_27" id="78_4way_27to4way_17" to="4way_17" spreadType="roadCenter" numLanes="1" priority="1"/>
    <edge from="4way_18" id="79_4way_18to4way_28" to="4way_28" spreadType="roadCenter" numLanes="1" priority="1"/>
    <edge from="4way_28" id="79_4way_28to4way_18" to="4way_18" spreadType="roadCenter" numLanes="1" priority="1"/>
    <edge from="4way_21" id="80_4way_21to4way_22" to="4way_22" spreadType="roadCenter" numLanes="1" priority="1"/>
    <edge from="4way_22" id="80_4way_22to4way_21" to="4way_21" spreadType="roadCenter" numLanes="1" priority="1"/>
    <edge from="4way_21" id="81_4way_21to4way_31" to="4way_31" spreadType="roadCenter" numLanes="1" priority="1"/>
    <edge from="4way_31" id="81_4way_31to4way_21" to="4way_21" spreadType="roadCenter" numLanes="1" priority="1"/>
    <edge from="4way_22" id="82_4way_22to4way_23" to="4way_23" spreadType="roadCenter" numLanes="1" priority="1"/>
    <edge from="4way_23" id="82_4way_23to4way_22" to="4way_22" spreadType="roadCenter" numLanes="1" priority="1"/>
    <edge from="4way_22" id="83_4way_22to4way_32" to="4way_32" spreadType="roadCenter" numLanes="1" priority="1"/>
    <edge from="4way_32" id="83_4way_32to4way_22" to="4way_22" spreadType="roadCenter" numLanes="1" priority="1"/>
    <edge from="4way_23" id="84_4way_23to4way_24" to="4way_24" spreadType="roadCenter" numLanes="1" priority="1"/>
    <edge from="4way_24" id="84_4way_24to4way_23" to="4way_23" spreadType="roadCenter" numLanes="1" priority="1"/>
    <edge from="4way_23" id="85_4way_23to4way_33" to="4way_33" spreadType="roadCenter" numLanes="1" priority="1"/>
    <edge from="4way_33" id="85_4way_33to4way_23" to="4way_23" spreadType="roadCenter" numLanes="1" priority="1"/>
    <edge from="4way_24" id="86_4way_24to4way_25" to="4way_25" spreadType="roadCenter" numLanes="1" priority="1"/>
    <edge from="4way_25" id="86_4way_25to4way_24" to="4way_24" spreadType="roadCenter" numLanes="1" priority="1"/>
    <edge from="4way_24" id="87_4way_24to4way_34" to="4way_34" spreadType="roadCenter" numLanes="1" priority="1"/>
    <edge from="4way_34" id="87_4way_34to4way_24" to="4way_24" spreadType="roadCenter" numLanes="1" priority="1"/>
    <edge from="4way_25" id="88_4way_25to4way_26" to="4way_26" spreadType="roadCenter" numLanes="1" priority="1"/>
    <edge from="4way_26" id="88_4way_26to4way_25" to="4way_25" spreadType="roadCenter" numLanes="1" priority="1"/>
    <edge from="4way_25" id="89_4way_25to4way_35" to="4way_35" spreadType="roadCenter" numLanes="1" priority="1"/>
    <edge from="4way_35" id="89_4way_35to4way_25" to="4way_25" spreadType="roadCenter" numLanes="1" priority="1"/>
    <edge from="4way_26" id="90_4way_26to4way_27" to="4way_27" spreadType="roadCenter" numLanes="1" priority="1"/>
    <edge from="4way_27" id="90_4way_27to4way_26" to="4way_26" spreadType="roadCenter" numLanes="1" priority="1"/>
    <edge from="4way_26" id="91_4way_26to4way_36" to="4way_36" spreadType="roadCenter" numLanes="1" priority="1"/>
    <edge from="4way_36" id="91_4way_36to4way_26" to="4way_26" spreadType="roadCenter" numLanes="1" priority="1"/>
    <edge from="4way_27" id="92_4way_27to4way_28" to="4way_28" spreadType="roadCenter" numLanes="1" priority="1"/>
    <edge from="4way_28" id="92_4way_28to4way_27" to="4way_27" spreadType="roadCenter" numLanes="1" priority="1"/>
    <edge from="4way_27" id="93_4way_27to4way_37" to="4way_37" spreadType="roadCenter" numLanes="1" priority="1"/>
    <edge from="4way_37" id="93_4way_37to4way_27" to="4way_27" spreadType="roadCenter" numLanes="1" priority="1"/>
    <edge from="4way_28" id="94_4way_28to4way_38" to="4way_38" spreadType="roadCenter" numLanes="1" priority="1"/>
    <edge from="4way_38" id="94_4way_38to4way_28" to="4way_28" spreadType="roadCenter" numLanes="1" priority="1"/>
    <edge from="4way_31" id="95_4way_31to4way_32" to="4way_32" spreadType="roadCenter" numLanes="1" priority="1"/>
    <edge from="4way_32" id="95_4way_32to4way_31" to="4way_31" spreadType="roadCenter" numLanes="1" priority="1"/>
    <edge from="4way_31" id="96_4way_31to4way_41" to="4way_41" spreadType="roadCenter" numLanes="1" priority="1"/>
    <edge from="4way_41" id="96_4way_41to4way_31" to="4way_31" spreadType="roadCenter" numLanes="1" priority="1"/>
    <edge from="4way_32" id="97_4way_32to4way_33" to="4way_33" spreadType="roadCenter" numLanes="1" priority="1"/>
    <edge from="4way_33" id="97_4way_33to4way_32" to="4way_32" spreadType="roadCenter" numLanes="1" priority="1"/>
    <edge from="4way_32" id="98_4way_32to4way_42" to="4way_42" spreadType="roadCenter" numLanes="1" priority="1"/>
    <edge from="4way_42" id="98_4way_42to4way_32" to="4way_32" spreadType="roadCenter" numLanes="1" priority="1"/>
    <edge from="4way_33" id="99_4way_33to4way_34" to="4way_34" spreadType="roadCenter" numLanes="1" priority="1"/>
    <edge from="4way_34" id="99_4way_34to4way_33" to="4way_33" spreadType="roadCenter" numLanes="1" priority="1"/>
    <edge from="4way_33" id="100_4way_33to4way_43" to="4way_43" spreadType="roadCenter" numLanes="1" priority="1"/>
    <edge from="4way_43" id="100_4way_43to4way_33" to="4way_33" spreadType="roadCenter" numLanes="1" priority="1"/>
    <edge from="4way_34" id="101_4way_34to4way_35" to="4way_35" spreadType="roadCenter" numLanes="1" priority="1"/>
    <edge from="4way_35" id="101_4way_35to4way_34" to="4way_34" spreadType="roadCenter" numLanes="1" priority="1"/>
    <edge from="4way_34" id="102_4way_34to4way_44" to="4way_44" spreadType="roadCenter" numLanes="1" priority="1"/>
    <edge from="4way_44" id="102_4way_44to4way_34" to="4way_34" spreadType="roadCenter" numLanes="1" priority="1"/>
    <edge from="4way_35" id="103_4way_35to4way_36" to="4way_36" spreadType="roadCenter" numLanes="1" priority="1"/>
    <edge from="4way_36" id="103_4way_36to4way_35" to="4way_35" spreadType="roadCenter" numLanes="1" priority="1"/>
    <edge from="4way_35" id="104_4way_35to4way_45" to="4way_45" spreadType="roadCenter" numLanes="1" priority="1"/>
    <edge from="4way_45" id="104_4way_45to4way_35" to="4way_35" spreadType="roadCenter" numLanes="1" priority="1"/>
    <edge from="4way_36" id="105_4way_36to4way_37" to="4way_37" spreadType="roadCenter" numLanes="1" priority="1"/>
    <edge from="4way_37" id="105_4way_37to4way_36" to="4way_36" spreadType="roadCenter" numLanes="1" priority="1"/>
    <edge from="4way_36" id="106_4way_36to4way_46" to="4way_46" spreadType="roadCenter" numLanes="1" priority="1"/>
    <edge from="4way_46" id="106_4way_46to4way_36" to="4way_36" spreadType="roadCenter" numLanes="1" priority="1"/>
    <edge from="4way_37" id="107_4way_37to4way_38" to="4way_38" spreadType="roadCenter" numLanes="1" priority="1"/>
    <edge from="4way_38" id="107_4way_38to4way_37" to="4way_37" spreadType="roadCenter" numLanes="1" priority="1"/>
    <edge from="4way_37" id="108_4way_37to4way_47" to="4way_47" spreadType="roadCenter" numLanes="1" priority="1"/>
    <edge from="4way_47" id="108_4way_47to4way_37" to="4way_37" spreadType="roadCenter" numLanes="1" priority="1"/>
    <edge from="4way_38" id="109_4way_38to4way_48" to="4way_48" spreadType="roadCenter" numLanes="1" priority="1"/>
    <edge from="4way_48" id="109_4way_48to4way_38" to="4way_38" spreadType="roadCenter" numLanes="1" priority="1"/>
    <edge from="4way_41" id="110_4way_41to4way_42" to="4way_42" spreadType="roadCenter" numLanes="1" priority="1"/>
    <edge from="4way_42" id="110_4way_42to4way_41" to="4way_41" spreadType="roadCenter" numLanes="1" priority="1"/>
    <edge from="4way_41" id="111_4way_41to4way_51" to="4way_51" spreadType="roadCenter" numLanes="1" priority="1"/>
    <edge from="4way_51" id="111_4way_51to4way_41" to="4way_41" spreadType="roadCenter" numLanes="1" priority="1"/>
    <edge from="4way_42" id="112_4way_42to4way_43" to="4way_43" spreadType="roadCenter" numLanes="1" priority="1"/>
    <edge from="4way_43" id="112_4way_43to4way_42" to="4way_42" spreadType="roadCenter" numLanes="1" priority="1"/>
    <edge from="4way_42" id="113_4way_42to4way_52" to="4way_52" spreadType="roadCenter" numLanes="1" priority="1"/>
    <edge from="4way_52" id="113_4way_52to4way_42" to="4way_42" spreadType="roadCenter" numLanes="1" priority="1"/>
    <edge from="4way_43" id="114_4way_43to4way_44" to="4way_44" spreadType="roadCenter" numLanes="1" priority="1"/>
    <edge from="4way_44" id="114_4way_44to4way_43" to="4way_43" spreadType="roadCenter" numLanes="1" priority="1"/>
    <edge from="4way_43" id="115_4way_43to4way_53" to="4way_53" spreadType="roadCenter" numLanes="1" priority="1"/>
    <edge from="4way_53" id="115_4way_53to4way_43" to="4way_43" spreadType="roadCenter" numLanes="1" priority="1"/>
    <edge from="4way_44" id="116_4way_44to4way_45" to="4way_45" spreadType="roadCenter" numLanes="1" priority="1"/>
    <edge from="4way_45" id="116_4way_45to4way_44" to="4way_44" spreadType="roadCenter" numLanes="1" priority="1"/>
    <edge from="4way_44" id="117_4way_44to4way_54" to="4way_54" spreadType="roadCenter" numLanes="1" priority="1"/>
    <edge from="4way_54" id="117_4way_54to4way_44" to="4way_44" spreadType="roadCenter" numLanes="1" priority="1"/>
    <edge from="4way_45" id="118_4way_45to4way_46" to="4way_46" spreadType="roadCenter" numLanes="1" priority="1"/>
    <edge from="4way_46" id="118_4way_46to4way_45" to="4way_45" spreadType="roadCenter" numLanes="1" priority="1"/>
    <edge from="4way_45" id="119_4way_45to4way_55" to="4way_55" spreadType="roadCenter" numLanes="1" priority="1"/>
    <edge from="4way_55" id="119_4way_55to4way_45" to="4way_45" spreadType="roadCenter" numLanes="1" priority="1"/>
    <edge from="4way_46" id="120_4way_46to4way_47" to="4way_47" spreadType="roadCenter" numLanes="1" priority="1"/>
    <edge from="4way_47" id="120_4way_47to4way_46" to="4way_46" spreadType="roadCenter" numLanes="1" priority="1"/>
    <edge from="4way_46" id="121_4way_46to4way_56" to="4way_56" spreadType="roadCenter" numLanes="1" priority="1"/>
    <edge from="4way_56" id="121_4way_56to4way_46" to="4way_46" spreadType="roadCenter" numLanes="1" priority="1"/>
    <edge from="4way_47" id="122_4way_47to4way_48" to="4way_48" spreadType="roadCenter" numLanes="1" priority="1"/>
    <edge from="4way_48" id="122_4way_48to4way_47" to="4way_47" spreadType="roadCenter" numLanes="1" priority="1"/>
    <edge from="4way_47" id="123_4way_47to4way_57" to="4way_57" spreadType="roadCenter" numLanes="1" priority="1"/>
    <edge from="4way_57" id="123_4way_57to4way_47" to="4way_47" spreadType="roadCenter" numLanes="1" priority="1"/>
    <edge from="4way_48" id="124_4way_48to4way_58" to="4way_58" spreadType="roadCenter" numLanes="1" priority="1"/>
    <edge from="4way_58" id="124_4way_58to4way_48" to="4way_48" spreadType="roadCenter" numLanes="1" priority="1"/>
    <edge from="4way_51" id="125_4way_51to4way_52" to="4way_52" spreadType="roadCenter" numLanes="1" priority="1"/>
    <edge from="4way_52" id="125_4way_52to4way_51" to="4way_51" spreadType="roadCenter" numLanes="1" priority="1"/>
    <edge from="4way_51" id="126_4way_51to4way_61" to="4way_61" spreadType="roadCenter" numLanes="1" priority="1"/>
    <edge from="4way_61" id="126_4way_61to4way_51" to="4way_51" spreadType="roadCenter" numLanes="1" priority="1"/>
    <edge from="4way_52" id="127_4way_52to4way_53" to="4way_53" spreadType="roadCenter" numLanes="1" priority="1"/>
    <edge from="4way_53" id="127_4way_53to4way_52" to="4way_52" spreadType="roadCenter" numLanes="1" priority="1"/>
    <edge from="4way_52" id="128_4way_52to4way_62" to="4way_62" spreadType="roadCenter" numLanes="1" priority="1"/>
    <edge from="4way_62" id="128_4way_62to4way_52" to="4way_52" spreadType="roadCenter" numLanes="1" priority="1"/>