<?xml version="1.0" encoding="UTF-8"?>
<edges xmlns:xsi="http://www.w3.org/2001/XMLSchema-instance" xsi:noNamespaceSchemaLocation="http://sumo.dlr.de/xsd/edges_file.xsd">
    <edge from="3way_1" id="1_3way_1to3way_15" to="3way_15" spreadType="roadCenter" numLanes="1" priority="1" shape="100.00,0.00 0.00,0.00 0.00,-100.00"/>
    <edge from="3way_15" id="1_3way_15to3way_1" to="3way_1" spreadType="roadCenter" numLanes="1" priority="1" shape="0.00,-100.00 0.00,0.00 100.00,0.00"/>
    <edge from="3way_1" id="2_3way_1to3way_2" to="3way_2" spreadType="roadCenter" numLanes="1" priority="1"/>
    <edge from="3way_2" id="2_3way_2to3way_1" to="3way_1" spreadType="roadCenter" numLanes="1" priority="1"/>
    <edge from="3way_1" id="3_3way_1to4way_16" to="4way_16" spreadType="roadCenter" numLanes="1" priority="0"/>
    <edge from="4way_16" id="3_4way_16to3way_1" to="3way_1" spreadType="roadCenter" numLanes="1" priority="0"/>
    <edge from="3way_10" id="4_3way_10to3way_11" to="3way_11" spreadType="roadCenter" numLanes="1" priority="1"/>
    <edge from="3way_11" id="4_3way_11to3way_10" to="3way_10" spreadType="roadCenter" numLanes="1" priority="1"/>
    <edge from="3way_10" id="5_3way_10to3way_9" to="3way_9" spreadType="roadCenter" numLanes="1" priority="1"/>
    <edge from="3way_9" id="5_3way_9to3way_10" to="3way_10" spreadType="roadCenter" numLanes="1" priority="1"/>
    <edge from="3way_10" id="6_3way_10to4way_25" to="4way_25" spreadType="roadCenter" numLanes="1" priority="0"/>
    <edge from="4way_25" id="6_4way_25to3way_10" to="3way_10" spreadType="roadCenter" numLanes="1" priority="0"/>
    <edge from="3way_104" id="7_3way_104to3way_119" to="3way_119" spreadType="roadCenter" numLanes="1" priority="1"/>
    <edge from="3way_119" id="7_3way_119to3way_104" to="3way_104" spreadType="roadCenter" numLanes="1" priority="1"/>
    <edge from="3way_104" id="8_3way_104to3way_89" to="3way_89" spreadType="roadCenter" numLanes="1" priority="1"/>
    <edge from="3way_89" id="8_3way_89to3way_104" to="3way_104" spreadType="roadCenter" numLanes="1" priority="1"/>
    <edge from="3way_104" id="9_3way_104to4way_103" to="4way_103" spreadType="roadCenter" numLanes="1" priority="0"/>
    <edge from="4way_103" id="9_4way_103to3way_104" to="3way_104" spreadType="roadCenter" numLanes="1" priority="0"/>
    <edge from="3way_105" id="10_3way_105to3way_120" to="3way_120" spreadType="roadCenter" numLanes="1" priority="1"/>
    <edge from="3way_120" id="10_3way_120to3way_105" to="3way_105" spreadType="roadCenter" numLanes="1" priority="1"/>
    <edge from="3way_105" id="11_3way_105to3way_90" to="3way_90" spreadType="roadCenter" numLanes="1" priority="1"/>
    <edge from="3way_90" id="11_3way_90to3way_105" to="3way_105" spreadType="roadCenter" numLanes="1" priority="1"/>
    <edge from="3way_105" id="12_3way_105to4way_106" to="4way_106" spreadType="roadCenter" numLanes="1" priority="0"/>
    <edge from="4way_106" id="12_4way_106to3way_105" to="3way_105" spreadType="roadCenter" numLanes="1" priority="0"/>
    <edge from="3way_11" id="13_3way_11to3way_12" to="3way_12" spreadType="roadCenter" numLanes="1" priority="1"/>
    <edge from="3way_12" id="13_3way_12to3way_11" to="3way_11" spreadType="roadCenter" numLanes="1" priority="1"/>
    <edge from="3way_11" id="14_3way_11to4way_26" to="4way_26" spreadType="roadCenter" numLanes="1" priority="0"/>
    <edge from="4way_26" id="14_4way_26to3way_11" to="3way_11" spreadType="roadCenter" numLanes="1" priority="0"/>
    <edge from="3way_119" id="15_3way_119to3way_134" to="3way_134" spreadType="roadCenter" numLanes="1" priority="1"/>
    <edge from="3way_134" id="15_3way_134to3way_119" to="3way_119" spreadType="roadCenter" numLanes="1" priority="1"/>
    <edge from="3way_119" id="16_3way_119to4way_118" to="4way_118" spreadType="roadCenter" numLanes="1" priority="0"/>
    <edge from="4way_118" id="16_4way_118to3way_119" to="3way_119" spreadType="roadCenter" numLanes="1" priority="0"/>
    <edge from="3way_12" id="17_3way_12to3way_13" to="3way_13" spreadType="roadCenter" numLanes="1" priority="1"/>
    <edge from="3way_13" id="17_3way_13to3way_12" to="3way_12" spreadType="roadCenter" numLanes="1" priority="1"/>
    <edge from="3way_12" id="18_3way_12to4way_27" to="4way_27" spreadType="roadCenter" numLanes="1" priority="0"/>
    <edge from="4way_27" id="18_4way_27to3way_12" to="3way_12" spreadType="roadCenter" numLanes="1" priority="0"/>
    <edge from="3way_120" id="19_3way_120to3way_135" to="3way_135" spreadType="roadCenter" numLanes="1" priority="1"/>
    <edge from="3way_135" id="19_3way_135to3way_120" to="3way_120" spreadType="roadCenter" numLanes="1" priority="1"/>
    <edge from="3way_120" id="20_3way_120to4way_121" to="4way_121" spreadType="roadCenter" numLanes="1" priority="0"/>
    <edge from="4way_121" id="20_4way_121to3way_120" to="3way_120" spreadType="roadCenter" numLanes="1" priority="0"/>
    <edge from="3way_13" id="21_3way_13to3way_29" to="3way_29" spreadType="roadCenter" numLanes="1" priority="1" shape="1300.00,0.00 1400.00,0.00 1400.00,-100.00"/>
    <edge from="3way_29" id="21_3way_29to3way_13" to="3way_13" spreadType="roadCenter" numLanes="1" priority="1" shape="1400.00,-100.00 1400.00,0.00 1300.00,0.00"/>
    <edge from="3way_13" id="22_3way_13to4way_28" to="4way_28" spreadType="roadCenter" numLanes="1" priority="0"/>
    <edge from="4way_28" id="22_4way_28to3way_13" to="3way_13" spreadType="roadCenter" numLanes="1" priority="0"/>
    <edge from="3way_134" id="23_3way_134to3way_149" to="3way_149" spreadType="roadCenter" numLanes="1" priority="1"/>
    <edge from="3way_149" id="23_3way_149to3way_134" to="3way_134" spreadType="roadCenter" numLanes="1" priority="1"/>
    <edge from="3way_134" id="24_3way_134to4way_133" to="4way_133" spreadType="roadCenter" numLanes="1" priority="0"/>
    <edge from="4way_133" id="24_4way_133to3way_134" to="3way_134" spreadType="roadCenter" numLanes="1" priority="0"/>
    <edge from="3way_135" id="25_3way_135to3way_150" to="3way_150" spreadType="roadCenter" numLanes="1" priority="1"/>
    <edge from="3way_150" id="25_3way_150to3way_135" to="3way_135" spreadType="roadCenter" numLanes="1" priority="1"/>
    <edge from="3way_135" id="26_3way_135to4way_136" to="4way_136" spreadType="roadCenter" numLanes="1" priority="0"/>
    <edge from="4way_136" id="26_4way_136to3way_135" to="3way_135" spreadType="roadCenter" numLanes="1" priority="0"/>
    <edge from="3way_149" id="27_3way_149to3way_164" to="3way_164" spreadType="roadCenter" numLanes="1" priority="1"/>
    <edge from="3way_164" id="27_3way_164to3way_149" to="3way_149" spreadType="roadCenter" numLanes="1" priority="1"/>
    <edge from="3way_149" id="28_3way_149to4way_148" to="4way_148" spreadType="roadCenter" numLanes="1" priority="0"/>
    <edge from="4way_148" id="28_4way_148to3way_149" to="3way_149" spreadType="roadCenter" numLanes="1" priority="0"/>
    <edge from="3way_15" id="29_3way_15to3way_30" to="3way_30" spreadType="roadCenter" numLanes="1" priority="1"/>
    <edge from="3way_30" id="29_3way_30to3way_15" to="3way_15" spreadType="roadCenter" numLanes="1" priority="1"/>
    <edge from="3way_15" id="30_3way_15to4way_16" to="4way_16" spreadType="roadCenter" numLanes="1" priority="0"/>
    <edge from="4way_16" id="30_4way_16to3way_15" to="3way_15" spreadType="roadCenter" numLanes="1" priority="0"/>
    <edge from="3way_150" id="31_3way_150to3way_165" to="3way_165" spreadType="roadCenter" numLanes="1" priority="1"/>
    <edge from="3way_165" id="31_3way_165to3way_150" to="3way_150" spreadType="roadCenter" numLanes="1" priority="1"/>
    <edge from="3way_150" id="32_3way_150to4way_151" to="4way_151" spreadType="roadCenter" numLanes="1" priority="0"/>
    <edge from="4way_151" id="32_4way_151to3way_150" to="3way_150" spreadType="roadCenter" numLanes="1" priority="0"/>
    <edge from="3way_164" id="33_3way_164to3way_179" to="3way_179" spreadType="roadCenter" numLanes="1" priority="1"/>
    <edge from="3way_179" id="33_3way_179to3way_164" to="3way_164" spreadType="roadCenter" numLanes="1" priority="1"/>
    <edge from="3way_164" id="34_3way_164to4way_163" to="4way_163" spreadType="roadCenter" numLanes="1" priority="0"/>
    <edge from="4way_163" id="34_4way_163to3way_164" to="3way_164" spreadType="roadCenter" numLanes="1" priority="0"/>
    <edge from="3way_165" id="35_3way_165to3way_180" to="3way_180" spreadType="roadCenter" numLanes="1" priority="1"/>
    <edge from="3way_180" id="35_3way_180to3way_165" to="3way_165" spreadType="roadCenter" numLanes="1" priority="1"/>
    <edge from="3way_165" id="36_3way_165to4way_166" to="4way_166" spreadType="roadCenter" numLanes="1" priority="0"/>
    <edge from="4way_166" id="36_4way_166to3way_165" to="3way_165" spreadType="roadCenter" numLanes="1" priority="0"/>
    <edge from="3way_179" id="37_3way_179to3way_194" to="3way_194" spreadType="roadCenter" numLanes="1" priority="1"/>
    <edge from="3way_194" id="37_3way_194to3way_179" to="3way_179" spreadType="roadCenter" numLanes="1" priority="1"/>
    <edge from="3way_179" id="38_3way_179to4way_178" to="4way_178" spreadType="roadCenter" numLanes="1" priority="0"/>
    <edge from="4way_178" id="38_4way_178to3way_179" to="3way_179" spreadType="roadCenter" numLanes="1" priority="0"/>
    <edge from="3way_180" id="39_3way_180to3way_195" to="3way_195" spreadType="roadCenter" numLanes="1" priority="1"/>
    <edge from="3way_195" id="39_3way_195to3way_180" to="3way_180" spreadType="roadCenter" numLanes="1" priority="1"/>
    <edge from="3way_180" id="40_3way_180to4way_181" to="4way_181" spreadType="roadCenter" numLanes="1" priority="0"/>
    <edge from="4way_181" id="40_4way_181to3way_180" to="3way_180" spreadType="roadCenter" numLanes="1" priority="0"/>
    <edge from="3way_194" id="41_3way_194to3way_209" to="3way_209" spreadType="roadCenter" numLanes="1" priority="1"/>
    <edge from="3way_209" id="41_3way_209to3way_194" to="3way_194" spreadType="roadCenter" numLanes="1" priority="1"/>
    <edge from="3way_194" id="42_3way_194to4way_193" to="4way_193" spreadType="roadCenter" numLanes="1" priority="0"/>
    <edge from="4way_193" id="42_4way_193to3way_194" to="3way_194" spreadType="roadCenter" numLanes="1" priority="0"/>
    <edge from="3way_211" id="43_3way_211to3way_195" to="3way_195" spreadType="roadCenter" numLanes="1" priority="1" shape="100.00,-1400.00 0.00,-1400.00 0.00,-1300.00"/>
    <edge from="3way_195" id="43_3way_195to3way_211" to="3way_211" spreadType="roadCenter" numLanes="1" priority="1" shape="0.00,-1300.00 0.00,-1400.00 100.00,-1400.00"/>
    <edge from="3way_195" id="44_3way_195to4way_196" to="4way_196" spreadType="roadCenter" numLanes="1" priority="0"/>
    <edge from="4way_196" id="44_4way_196to3way_195" to="3way_195" spreadType="roadCenter" numLanes="1" priority="0"/>
    <edge from="3way_2" id="45_3way_2to3way_3" to="3way_3" spreadType="roadCenter" numLanes="1" priority="1"/>
    <edge from="3way_3" id="45_3way_3to3way_2" to="3way_2" spreadType="roadCenter" numLanes="1" priority="1"/>
    <edge from="3way_2" id="46_3way_2to4way_17" to="4way_17" spreadType="roadCenter" numLanes="1" priority="0"/>
    <edge from="4way_17" id="46_4way_17to3way_2" to="3way_2" spreadType="roadCenter" numLanes="1" priority="0"/>
    <edge from="3way_209" id="47_3way_209to3way_223" to="3way_223" spreadType="roadCenter" numLanes="1" priority="1" shape="1400.00,-1300.00 1400.00,-1400.00 1300.00,-1400.00"/>
    <edge from="3way_223" id="47_3way_223to3way_209" to="3way_209" spreadType="roadCenter" numLanes="1" priority="1" shape="1300.00,-1400.00 1400.00,-1400.00 1400.00,-1300.00"/>
    <edge from="3way_209" id="48_3way_209to4way_208" to="4way_208" spreadType="roadCenter" numLanes="1" priority="0"/>
    <edge from="4way_208" id="48_4way_208to3way_209" to="3way_209" spreadType="roadCenter" numLanes="1" priority="0"/>
    <edge from="3way_211" id="49_3way_211to3way_212" to="3way_212" spreadType="roadCenter" numLanes="1" priority="1"/>
    <edge from="3way_212" id="49_3way_212to3way_211" to="3way_211" spreadType="roadCenter" numLanes="1" priority="1"/>
    <edge from="3way_211" id="50_3way_211to4way_196" to="4way_196" spreadType="roadCenter" numLanes="1" priority="0"/>
    <edge from="4way_196" id="50_4way_196to3way_211" to="3way_211" spreadType="roadCenter" numLanes="1" priority="0"/>
    <edge from="3way_212" id="51_3way_212to3way_213" to="3way_213" spreadType="roadCenter" numLanes="1" priority="1"/>
    <edge from="3way_213" id="51_3way_213to3way_212" to="3way_212" spreadType="roadCenter" numLanes="1" priority="1"/>
    <edge from="3way_212" id="52_3way_212to4way_197" to="4way_197" spreadType="roadCenter" numLanes="1" priority="0"/>
    <edge from="4way_197" id="52_4way_197to3way_212" to="3way_212" spreadType="roadCenter" numLanes="1" priority="0"/>
    <edge from="3way_213" id="53_3way_213to3way_214" to="3way_214" spreadType="roadCenter" numLanes="1" priority="1"/>
    <edge from="3way_214" id="53_3way_214to3way_213" to="3way_213" spreadType="roadCenter" numLanes="1" priority="1"/>
    <edge from="3way_213" id="54_3way_213to4way_198" to="4way_198" spreadType="roadCenter" numLanes="1" priority="0"/>
    <edge from="4way_198" id="54_4way_198to3way_213" to="3way_213" spreadType="roadCenter" numLanes="1" priority="0"/>
    <edge from="3way_214" id="55_3way_214to3way_215" to="3way_215" spreadType="roadCenter" numLanes="1" priority="1"/>
    <edge from="3way_215" id="55_3way_215to3way_214" to="3way_214" spreadType="roadCenter" numLanes="1" priority="1"/>
    <edge from="3way_214" id="56_3way_214to4way_199" to="4way_199" spreadType="roadCenter" numLanes="1" priority="0"/>
    <edge from="4way_199" id="56_4way_199to3way_214" to="3way_214" spreadType="roadCenter" numLanes="1" priority="0"/>
    <edge from="3way_215" id="57_3way_215to3way_216" to="3way_216" spreadType="roadCenter" numLanes="1" priority="1"/>
    <edge from="3way_216" id="57_3way_216to3way_215" to="3way_215" spreadType="roadCenter" numLanes="1" priority="1"/>
    <edge from="3way_215" id="58_3way_215to4way_200" to="4way_200" spreadType="roadCenter" numLanes="1" priority="0"/>
    <edge from="4way_200" id="58_4way_200to3way_215" to="3way_215" spreadType="roadCenter" numLanes="1" priority="0"/>
    <edge from="3way_216" id="59_3way_216to3way_217" to="3way_217" spreadType="roadCenter" numLanes="1" priority="1"/>
    <edge from="3way_217" id="59_3way_217to3way_216" to="3way_216" spreadType="roadCenter" numLanes="1" priority="1"/>
    <edge from="3way_216" id="60_3way_216to4way_201" to="4way_201" spreadType="roadCenter" numLanes="1" priority="0"/>
    <edge from="4way_201" id="60_4way_201to3way_216" to="3way_216" spreadType="roadCenter" numLanes="1" priority="0"/>
    <edge from="3way_217" id="61_3way_217to3way_218" to="3way_218" spreadType="roadCenter" numLanes="1" priority="1"/>
    <edge from="3way_218" id="61_3way_218to3way_217" to="3way_217" spreadType="roadCenter" numLanes="1" priority="1"/>
    <edge from="3way_217" id="62_3way_217to4way_202" to="4way_202" spreadType="roadCenter" numLanes="1" priority="0"/>
    <edge from="4way_202" id="62_4way_202to3way_217" to="3way_217" spreadType="roadCenter" numLanes="1" priority="0"/>
    <edge from="3way_218" id="63_3way_218to3way_219" to="3way_219" spreadType="roadCenter" numLanes="1" priority="1"/>
    <edge from="3way_219" id="63_3way_219to3way_218" to="3way_218" spreadType="roadCenter" numLanes="1" priority="1"/>
    <edge from="3way_218" id="64_3way_218to4way_203" to="4way_203" spreadType="roadCenter" numLanes="1" priority="0"/>
    <edge from="4way_203" id="64_4way_203to3way_218" to="3way_218" spreadType="roadCenter" numLanes="1" priority="0"/>
    <edge from="3way_219" id="65_3way_219to3way_220" to="3way_220" spreadType="roadCenter" numLanes="1" priority="1"/>
    <edge from="3way_220" id="65_3way_220to3way_219" to="3way_219" spreadType="roadCenter" numLanes="1" priority="1"/>
    <edge from="3way_219" id="66_3way_219to4way_204" to="4way_204" spreadType="roadCenter" numLanes="1" priority="0"/>
    <edge from="4way_204" id="66_4way_204to3way_219" to="3way_219" spreadType="roadCenter" numLanes="1" priority="0"/>
    <edge from="3way_220" id="67_3way_220to3way_221" to="3way_221" spreadType="roadCenter" numLanes="1" priority="1"/>
    <edge from="3way_221" id="67_3way_221to3way_220" to="3way_220" spreadType="roadCenter" numLanes="1" priority="1"/>
    <edge from="3way_220" id="68_3way_220to4way_205" to="4way_205" spreadType="roadCenter" numLanes="1" priority="0"/>
    <edge from="4way_205" id="68_4way_205to3way_220" to="3way_220" spreadType="roadCenter" numLanes="1" priority="0"/>
    <edge from="3way_221" id="69_3way_221to3way_222" to="3way_222" spreadType="roadCenter" numLanes="1" priority="1"/>
    <edge from="3way_222" id="69_3way_222to3way_221" to="3way_221" spreadType="roadCenter" numLanes="1" priority="1"/>
    <edge from="3way_221" id="70_3way_221to4way_206" to="4way_206" spreadType="roadCenter" numLanes="1" priority="0"/>
    <edge from="4way_206" id="70_4way_206to3way_221" to="3way_221" spreadType="roadCenter" numLanes="1" priority="0"/>
    <edge from="3way_222" id="71_3way_222to3way_223" to="3way_223" spreadType="roadCenter" numLanes="1" priority="1"/>
    <edge from="3way_223" id="71_3way_223to3way_222" to="3way_222" spreadType="roadCenter" numLanes="1" priority="1"/>
    <edge from="3way_222" id="72_3way_222to4way_207" to="4way_207" spreadType="roadCenter" numLanes="1" priority="0"/>
    <edge from="4way_207" id="72_4way_207to3way_222" to="3way_222" spreadType="roadCenter" numLanes="1" priority="0"/>
    <edge from="3way_223" id="73_3way_223to4way_208" to="4way_208" spreadType="roadCenter" numLanes="1" priority="0"/>
    <edge from="4way_208" id="73_4way_208to3way_223" to="3way_223" spreadType="roadCenter" numLanes="1" priority="0"/>
    <edge from="3way_29" id="74_3way_29to3way_44" to="3way_44" spreadType="roadCenter" numLanes="1" priority="1"/>
    <edge from="3way_44" id="74_3way_44to3way_29" to="3way_29" spreadType="roadCenter" numLanes="1" priority="1"/>
    <edge from="3way_29" id="75_3way_29to4way_28" to="4way_28" spreadType="roadCenter" numLanes="1" priority="0"/>
    <edge from="4way_28" id="75_4way_28to3way_29" to="3way_29" spreadType="roadCenter" numLanes="1" priority="0"/>
    <edge from="3way_3" id="76_3way_3to3way_4" to="3way_4" spreadType="roadCenter" numLanes="1" priority="1"/>
    <edge from="3way_4" id="76_3way_4to3way_3" to="3way_3" spreadType="roadCenter" numLanes="1" priority="1"/>
    <edge from="3way_3" id="77_3way_3to4way_18" to="4way_18" spreadType="roadCenter" numLanes="1" priority="0"/>
    <edge from="4way_18" id="77_4way_18to3way_3" to="3way_3" spreadType="roadCenter" numLanes="1" priority="0"/>
    <edge from="3way_30" id="78_3way_30to3way_45" to="3way_45" spreadType="roadCenter" numLanes="1" priority="1"/>
    <edge from="3way_45" id="78_3way_45to3way_30" to="3way_30" spreadType="roadCenter" numLanes="1" priority="1"/>
    <edge from="3way_30" id="79_3way_30to4way_31" to="4way_31" spreadType="roadCenter" numLanes="1" priority="0"/>
    <edge from="4way_31" id="79_4way_31to3way_30" to="3way_30" spreadType="roadCenter" numLanes="1" priority="0"/>
    <edge from="3way_4" id="80_3way_4to3way_5" to="3way_5" spreadType="roadCenter" numLanes="1" priority="1"/>
    <edge from="3way_5" id="80_3way_5to3way_4" to="3way_4" spreadType="roadCenter" numLanes="1" priority="1"/>
    <edge from="3way_4" id="81_3way_4to4way_19" to="4way_19" spreadType="roadCenter" numLanes="1" priority="0"/>
    <edge from="4way_19" id="81_4way_19to3way_4" to="3way_4" spreadType="roadCenter" numLanes="1" priority="0"/>
    <edge from="3way_44" id="82_3way_44to3way_59" to="3way_59" spreadType="roadCenter" numLanes="1" priority="1"/>
    <edge from="3way_59" id="82_3way_59to3way_44" to="3way_44" spreadType="roadCenter" numLanes="1" priority="1"/>
    <edge from="3way_44" id="83_3way_44to4way_43" to="4way_43" spreadType="roadCenter" numLanes="1" priority="0"/>
    <edge from="4way_43" id="83_4way_43to3way_44" to="3way_44" spreadType="roadCenter" numLanes="1" priority="0"/>
    <edge from="3way_45" id="84_3way_45to3way_60" to="3way_60" spreadType="roadCenter" numLanes="1" priority="1"/>
    <edge from="3way_60" id="84_3way_60to3way_45" to="3way_45" spreadType="roadCenter" numLanes="1" priority="1"/>
    <edge from="3way_45" id="85_3way_45to4way_46" to="4way_46" spreadType="roadCenter" numLanes="1" priority="0"/>
    <edge from="4way_46" id="85_4way_46to3way_45" to="3way_45" spreadType="roadCenter" numLanes="1" priority="0"/>
    <edge from="3way_5" id="86_3way_5to3way_6" to="3way_6" spreadType="roadCenter" numLanes="1" priority="1"/>
    <edge from="3way_6" id="86_3way_6to3way_5" to="3way_5" spreadType="roadCenter" numLanes="1" priority="1"/>
    <edge from="3way_5" id="87_3way_5to4way_20" to="4way_20" spreadType="roadCenter" numLanes="1" priority="0"/>
    <edge from="4way_20" id="87_4way_20to3way_5" to="3way_5" spreadType="roadCenter" numLanes="1" priority="0"/>
    <edge from="3way_59" id="88_3way_59to3way_74" to="3way_74" spreadType="roadCenter" numLanes="1" priority="1"/>
    <edge from="3way_74" id="88_3way_74to3way_59" to="3way_59" spreadType="roadCenter" numLanes="1" priority="1"/>
    <edge from="3way_59" id="89_3way_59to4way_58" to="4way_58" spreadType="roadCenter" numLanes="1" priority="0"/>
    <edge from="4way_58" id="89_4way_58to3way_59" to="3way_59" spreadType="roadCenter" numLanes="1" priority="0"/>
    <edge from="3way_6" id="90_3way_6to3way_7" to="3way_7" spreadType="roadCenter" numLanes="1" priority="1"/>
    <edge from="3way_7" id="90_3way_7to3way_6" to="3way_6" spreadType="roadCenter" numLanes="1" priority="1"/>
    <edge from="3way_6" id="91_3way_6to4way_21" to="4way_21" spreadType="roadCenter" numLanes="1" priority="0"/>
    <edge from="4way_21" id="91_4way_21to3way_6" to="3way_6" spreadType="roadCenter" numLanes="1" priority="0"/>
    <edge from="3way_60" id="92_3way_60to3way_75" to="3way_75" spreadType="roadCenter" numLanes="1" priority="1"/>
    <edge from="3way_75" id="92_3way_75to3way_60" to="3way_60" spreadType="roadCenter" numLanes="1" priority="1"/>
    <edge from="3way_60" id="93_3way_60to4way_61" to="4way_61" spreadType="roadCenter" numLanes="1" priority="0"/>
    <edge from="4way_61" id="93_4way_61to3way_60" to="3way_60" spreadType="roadCenter" numLanes="1" priority="0"/>
    <edge from="3way_7" id="94_3way_7to3way_8" to="3way_8" spreadType="roadCenter" numLanes="1" priority="1"/>
    <edge from="3way_8" id="94_3way_8to3way_7" to="3way_7" spreadType="roadCenter" numLanes="1" priority="1"/>
    <edge from="3way_7" id="95_3way_7to4way_22" to="4way_22" spreadType="roadCenter" numLanes="1" priority="0"/>
    <edge from="4way_22" id="95_4way_22to3way_7" to="3way_7" spreadType="roadCenter" numLanes="1" priority="0"/>
    <edge from="3way_74" id="96_3way_74to3way_89" to="3way_89" spreadType="roadCenter" numLanes="1" priority="1"/>
    <edge from="3way_89" id="96_3way_89to3way_74" to="3way_74" spreadType="roadCenter" numLanes="1" priority="1"/>
    <edge from="3way_74" id="97_3way_74to4way_73" to="4way_73" spreadType="roadCenter" numLanes="1" priority="0"/>
    <edge from="4way_73" id="97_4way_73to3way_74" to="3way_74" spreadType="roadCenter" numLanes="1" priority="0"/>
    <edge from="3way_75" id="98_3way_75to3way_90" to="3way_90" spreadType="roadCenter" numLanes="1" priority="1"/>
    <edge from="3way_90" id="98_3way_90to3way_75" to="3way_75" spreadType="roadCenter" numLanes="1" priority="1"/>
    <edge from="3way_75" id="99_3way_75to4way_76" to="4way_76" spreadType="roadCenter" numLanes="1" priority="0"/>
    <edge from="4way_76" id="99_4way_76to3way_75" to="3way_75" spreadType="roadCenter" numLanes="1" priority="0"/>
    <edge from="3way_8" id="100_3way_8to3way_9" to="3way_9" spreadType="roadCenter" numLanes="1" priority="1"/>
    <edge from="3way_9" id="100_3way_9to3way_8" to="3way_8" spreadType="roadCenter" numLanes="1" priority="1"/>
    <edge from="3way_8" id="101_3way_8to4way_23" to="4way_23" spreadType="roadCenter" numLanes="1" priority="0"/>
    <edge from="4way_23" id="101_4way_23to3way_8" to="3way_8" spreadType="roadCenter" numLanes="1" priority="0"/>
    <edge from="3way_89" id="102_3way_89to4way_88" to="4way_88" spreadType="roadCenter" numLanes="1" priority="0"/>
    <edge from="4way_88" id="102_4way_88to3way_89" to="3way_89" spreadType="roadCenter" numLanes="1" priority="0"/>
    <edge from="3way_9" id="103_3way_9to4way_24" to="4way_24" spreadType="roadCenter" numLanes="1" priority="0"/>
    <edge from="4way_24" id="103_4way_24to3way_9" to="3way_9" spreadType="roadCenter" numLanes="1" priority="0"/>
    <edge from="3way_90" id="104_3way_90to4way_91" to="4way_91" spreadType="roadCenter" numLanes="1" priority="0"/>
    <edge from="4way_91" id="104_4way_91to3way_90" to="3way_90" spreadType="roadCenter" numLanes="1" priority="0"/>
    <edge from="4way_100" id="105_4way_100to4way_101" to="4way_101" spreadType="roadCenter" numLanes="1" priority="1"/>
    <edge from="4way_101" id="105_4way_101to4way_100" to="4way_100" spreadType="roadCenter" numLanes="1" priority="1"/>
    <edge from="4way_100" id="106_4way_100to4way_115" to="4way_115" spreadType="roadCenter" numLanes="1" priority="1"/>
    <edge from="4way_115" id="106_4way_115to4way_100" to="4way_100" spreadType="roadCenter" numLanes="1" priority="1"/>
    <edge from="4way_100" id="107_4way_100to4way_85" to="4way_85" spreadType="roadCenter" numLanes="1" priority="1"/>
    <edge from="4way_85" id="107_4way_85to4way_100" to="4way_100" spreadType="roadCenter" numLanes="1" priority="1"/>
    <edge from="4way_100" id="108_4way_100to4way_99" to="4way_99" spreadType="roadCenter" numLanes="1" priority="1"/>
    <edge from="4way_99" id="108_4way_99to4way_100" to="4way_100" spreadType="roadCenter" numLanes="1" priority="1"/>
    <edge from="4way_101" id="109_4way_101to4way_102" to="4way_102" spreadType="roadCenter" numLanes="1" priority="1"/>
    <edge from="4way_102" id="109_4way_102to4way_101" to="4way_101" spreadType="roadCenter" numLanes="1" priority="1"/>
    <edge from="4way_101" id="110_4way_101to4way_116" to="4way_116" spreadType="roadCenter" numLanes="1" priority="1"/>
    <edge from="4way_116" id="110_4way_116to4way_101" to="4way_101" spreadType="roadCenter" numLanes="1" priority="1"/>
    <edge from="4way_101" id="111_4way_101to4way_86" to="4way_86" spreadType="roadCenter" numLanes="1" priority="1"/>
    <edge from="4way_86" id="111_4way_86to4way_101" to="4way_101" spreadType="roadCenter" numLanes="1" priority="1"/>
    <edge from="4way_102" id="112_4way_102to4way_103" to="4way_103" spreadType="roadCenter" numLanes="1" priority="1"/>
    <edge from="4way_103" id="112_4way_103to4way_102" to="4way_102" spreadType="roadCenter" numLanes="1" priority="1"/>
    <edge from="4way_102" id="113_4way_102to4way_117" to="4way_117" spreadType="roadCenter" numLanes="1" priority="1"/>
    <edge from="4way_117" id="113_4way_117to4way_102" to="4way_102" spreadType="roadCenter" numLanes="1" priority="1"/>
    <edge from="4way_102" id="114_4way_102to4way_87" to="4way_87" spreadType="roadCenter" numLanes="1" priority="1"/>
    <edge from="4way_87" id="114_4way_87to4way_102" to="4way_102" spreadType="roadCenter" numLanes="1" priority="1"/>
    <edge from="4way_103" id="115_4way_103to4way_118" to="4way_118" spreadType="roadCenter" numLanes="1" priority="1"/>
    <edge from="4way_118" id="115_4way_118to4way_103" to="4way_103" spreadType="roadCenter" numLanes="1" priority="1"/>
    <edge from="4way_103" id="116_4way_103to4way_88" to="4way_88" spreadType="roadCenter" numLanes="1" priority="1"/>
    <edge from="4way_88" id="116_4way_88to4way_103" to="4way_103" spreadType="roadCenter" numLanes="1" priority="1"/>
    <edge from="4way_106" id="117_4way_106to4way_107" to="4way_107" spreadType="roadCenter" numLanes="1" priority="1"/>
    <edge from="4way_107" id="117_4way_107to4way_106" to="4way_106" spreadType="roadCenter" numLanes="1" priority="1"/>
    <edge from="4way_106" id="118_4way_106to4way_121" to="4way_121" spreadType="roadCenter" numLanes="1" priority="1"/>
    <edge from="4way_121" id="118_4way_121to4way_106" to="4way_106" spreadType="roadCenter" numLanes="1" priority="1"/>
    <edge from="4way_106" id="119_4way_106to4way_91" to="4way_91" spreadType="roadCenter" numLanes="1" priority="1"/>
    <edge from="4way_91" id="119_4way_91to4way_106" to="4way_106" spreadType="roadCenter" numLanes="1" priority="1"/>
    <edge from="4way_107" id="120_4way_107to4way_108" to="4way_108" spreadType="roadCenter" numLanes="1" priority="1"/>
    <edge from="4way_108" id="120_4way_108to4way_107" to="4way_107" spreadType="roadCenter" numLanes="1" priority="1"/>
    <edge from="4way_107" id="121_4way_107to4way_122" to="4way_122" spreadType="roadCenter" numLanes="1" priority="1"/>
    <edge from="4way_122" id="121_4way_122to4way_107" to="4way_107" spreadType="roadCenter" numLanes="1" priority="1"/>
    <edge from="4way_107" id="122_4way_107to4way_92" to="4way_92" spreadType="roadCenter" numLanes="1" priority="1"/>
    <edge from="4way_92" id="122_4way_92to4way_107" to="4way_107" spreadType="roadCenter" numLanes="1" priority="1"/>
    <edge from="4way_108" id="123_4way_108to4way_109" to="4way_109" spreadType="roadCenter" numLanes="1" priority="1"/>
    <edge from="4way_109" id="123_4way_109to4way_108" to="4way_108" spreadType="roadCenter" numLanes="1" priority="1"/>
    <edge from="4way_108" id="124_4way_108to4way_123" to="4way_123" spreadType="roadCenter" numLanes="1" priority="1"/>
    <edge from="4way_123" id="124_4way_123to4way_108" to="4way_108" spreadType="roadCenter" numLanes="1" priority="1"/>
    <edge from="4way_108" id="125_4way_108to4way_93" to="4way_93" spreadType="roadCenter" numLanes="1" priority="1"/>
    <edge from="4way_93" id="125_4way_93to4way_108" to="4way_108" spreadType="roadCenter" numLanes="1" priority="1"/>
    <edge from="4way_109" id="126_4way_109to4way_110" to="4way_110" spreadType="roadCenter" numLanes="1" priority="1"/>