<routes xmlns:xsi="http://www.w3.org/2001/XMLSchema-instance" xsi:noNamespaceSchemaLocation="http://sumo.dlr.de/xsd/routes_file.xsd">
<trip id="0" depart="0.0" fromJunction="4way_67" toJunction="4way_12"/>
<trip id="1" depart="0.7407" fromJunction="4way_65" toJunction="4way_48"/>
<trip id="2" depart="1.4814" fromJunction="4way_13" toJunction="4way_46"/>
<trip id="3" depart="2.2221" fromJunction="4way_60" toJunction="4way_55"/>
<trip id="4" depart="2.9628" fromJunction="4way_19" toJunction="4way_52"/>
<trip id="5" depart="3.7035" fromJunction="4way_56" toJunction="4way_50"/>
<trip id="6" depart="4.4442" fromJunction="4way_25" toJunction="4way_21"/>
<trip id="7" depart="5.1849" fromJunction="3way_7" toJunction="3way_6"/>
<trip id="8" depart="5.9256" fromJunction="4way_24" toJunction="3way_2"/>
<trip id="9" depart="6.666300000000001" fromJunction="4way_42" toJunction="4way_41"/>
<trip id="10" depart="7.407" fromJunction="4way_59" toJunction="4way_61"/>
<trip id="11" depart="8.1477" fromJunction="4way_50" toJunction="4way_11"/>
<trip id="12" depart="8.8884" fromJunction="4way_13" toJunction="3way_35"/>
<trip id="13" depart="9.629100000000001" fromJunction="4way_34" toJunction="3way_53"/>
<trip id="14" depart="10.3698" fromJunction="4way_37" toJunction="4way_56"/>
<trip id="15" depart="11.1105" fromJunction="4way_41" toJunction="3way_73"/>
<trip id="16" depart="11.8512" fromJunction="4way_21" toJunction="4way_11"/>
<trip id="17" depart="12.5919" fromJunction="4way_57" toJunction="3way_2"/>
<trip id="18" depart="13.332600000000001" fromJunction="4way_40" toJunction="4way_34"/>
<trip id="19" depart="14.0733" fromJunction="4way_55" toJunction="3way_9"/>
<trip id="20" depart="14.814" fromJunction="3way_5" toJunction="4way_49"/>
<trip id="21" depart="15.5547" fromJunction="3way_35" toJunction="3way_77"/>
<trip id="22" depart="16.2954" fromJunction="4way_10" toJunction="3way_36"/>
<trip id="23" depart="17.0361" fromJunction="4way_55" toJunction="4way_21"/>
<trip id="24" depart="17.7768" fromJunction="3way_17" toJunction="4way_70"/>
<trip id="25" depart="18.517500000000002" fromJunction="3way_62" toJunction="3way_77"/>
<trip id="26" depart="19.258200000000002" fromJunction="3way_74" toJunction="4way_22"/>
<trip id="27" depart="19.9989" fromJunction="3way_75" toJunction="4way_11"/>
<trip id="28" depart="20.7396" fromJunction="3way_26" toJunction="3way_62"/>
<trip id="29" depart="21.4803" fromJunction="3way_44" toJunction="4way_22"/>
<trip id="30" depart="22.221" fromJunction="4way_10" toJunction="3way_78"/>
<trip id="31" depart="22.9617" fromJunction="3way_17" toJunction="4way_15"/>
<trip id="32" depart="23.7024" fromJunction="3way_17" toJunction="4way_24"/>
<trip id="33" depart="24.4431" fromJunction="4way_20" toJunction="4way_61"/>
<trip id="34" depart="25.1838" fromJunction="4way_48" toJunction="4way_61"/>
<trip id="35" depart="25.924500000000002" fromJunction="3way_4" toJunction="4way_14"/>
<trip id="36" depart="26.665200000000002" fromJunction="3way_35" toJunction="3way_63"/>
<trip id="37" depart="27.405900000000003" fromJunction="3way_35" toJunction="3way_54"/>
<trip id="38" depart="28.1466" fromJunction="4way_37" toJunction="3way_36"/>
<trip id="39" depart="28.8873" fromJunction="4way_49" toJunction="3way_5"/>
<trip id="40" depart="29.628" fromJunction="3way_73" toJunction="4way_21"/>
<trip id="41" depart="30.3687" fromJunction="3way_17" toJunction="4way_56"/>
<trip id="42" depart="31.1094" fromJunction="4way_25" toJunction="4way_30"/>
<trip id="43" depart="31.8501" fromJunction="4way_31" toJunction="3way_36"/>
<trip id="44" depart="32.5908" fromJunction="4way_67" toJunction="3way_44"/>
<trip id="45" depart="33.3315" fromJunction="3way_79" toJunction="3way_54"/>
<trip id="46" depart="34.0722" fromJunction="3way_2" toJunction="4way_39"/>
<trip id="47" depart="34.8129" fromJunction="3way_1" toJunction="4way_15"/>
<trip id="48" depart="35.5536" fromJunction="3way_73" toJunction="4way_40"/>
<trip id="49" depart="36.2943" fromJunction="4way_52" toJunction="4way_14"/>
<trip id="50" depart="37.035000000000004" fromJunction="4way_30" toJunction="3way_74"/>
<trip id="51" depart="37.7757" fromJunction="4way_30" toJunction="4way_39"/>
<trip id="52" depart="38.516400000000004" fromJunction="4way_43" toJunction="3way_76"/>
<trip id="53" depart="39.2571" fromJunction="4way_33" toJunction="4way_64"/>
<trip id="54" depart="39.9978" fromJunction="3way_54" toJunction="4way_49"/>
<trip id="55" depart="40.7385" fromJunction="4way_28" toJunction="4way_68"/>
<trip id="56" depart="41.4792" fromJunction="4way_30" toJunction="4way_51"/>
<trip id="57" depart="42.2199" fromJunction="4way_49" toJunction="4way_51"/>
<trip id="58" depart="42.9606" fromJunction="4way_38" toJunction="4way_67"/>
<trip id="59" depart="43.7013" fromJunction="4way_13" toJunction="4way_43"/>
<trip id="60" depart="44.442" fromJunction="4way_48" toJunction="4way_46"/>
<trip id="61" depart="45.182700000000004" fromJunction="3way_45" toJunction="3way_2"/>
<trip id="62" depart="45.9234" fromJunction="3way_54" toJunction="4way_22"/>
<trip id="63" depart="46.664100000000005" fromJunction="4way_55" toJunction="4way_57"/>
<trip id="64" depart="47.4048" fromJunction="3way_54" toJunction="3way_44"/>
<trip id="65" depart="48.1455" fromJunction="4way_39" toJunction="4way_21"/>
<trip id="66" depart="48.8862" fromJunction="4way_22" toJunction="4way_30"/>
<trip id="67" depart="49.6269" fromJunction="4way_55" toJunction="4way_22"/>
<trip id="68" depart="50.3676" fromJunction="4way_10" toJunction="4way_69"/>
<trip id="69" depart="51.1083" fromJunction="4way_60" toJunction="4way_55"/>
<trip id="70" depart="51.849000000000004" fromJunction="4way_58" toJunction="4way_68"/>
<trip id="71" depart="52.5897" fromJunction="4way_16" toJunction="3way_17"/>
<trip id="72" depart="53.330400000000004" fromJunction="4way_70" toJunction="4way_58"/>
<trip id="73" depart="54.0711" fromJunction="4way_42" toJunction="3way_53"/>
<trip id="74" depart="54.811800000000005" fromJunction="4way_57" toJunction="3way_62"/>
<trip id="75" depart="55.5525" fromJunction="4way_33" toJunction="3way_35"/>
<trip id="76" depart="56.2932" fromJunction="4way_21" toJunction="4way_68"/>
<trip id="77" depart="57.0339" fromJunction="3way_6" toJunction="4way_37"/>
<trip id="78" depart="57.7746" fromJunction="4way_64" toJunction="4way_49"/>
<trip id="79" depart="58.5153" fromJunction="4way_42" toJunction="4way_67"/>
<trip id="80" depart="59.256" fromJunction="4way_33" toJunction="4way_61"/>
<trip id="81" depart="59.996700000000004" fromJunction="3way_9" toJunction="3way_1"/>
<trip id="82" depart="60.7374" fromJunction="3way_71" toJunction="4way_14"/>
<trip id="83" depart="61.478100000000005" fromJunction="3way_5" toJunction="4way_56"/>
<trip id="84" depart="62.2188" fromJunction="3way_2" toJunction="3way_78"/>
<trip id="85" depart="62.959500000000006" fromJunction="3way_76" toJunction="4way_59"/>
<trip id="86" depart="63.7002" fromJunction="4way_25" toJunction="3way_18"/>
<trip id="87" depart="64.4409" fromJunction="3way_3" toJunction="4way_58"/>
<trip id="88" depart="65.1816" fromJunction="4way_57" toJunction="3way_62"/>
<trip id="89" depart="65.9223" fromJunction="3way_75" toJunction="4way_30"/>
<trip id="90" depart="66.663" fromJunction="4way_57" toJunction="4way_25"/>
<trip id="91" depart="67.4037" fromJunction="4way_39" toJunction="4way_65"/>
<trip id="92" depart="68.1444" fromJunction="3way_36" toJunction="4way_14"/>
<trip id="93" depart="68.88510000000001" fromJunction="3way_77" toJunction="4way_28"/>
<trip id="94" depart="69.6258" fromJunction="4way_34" toJunction="3way_79"/>
<trip id="95" depart="70.3665" fromJunction="4way_29" toJunction="4way_14"/>
<trip id="96" depart="71.1072" fromJunction="3way_74" toJunction="3way_76"/>
<trip id="97" depart="71.8479" fromJunction="4way_55" toJunction="3way_5"/>
<trip id="98" depart="72.5886" fromJunction="4way_49" toJunction="3way_36"/>
<trip id="99" depart="73.3293" fromJunction="3way_71" toJunction="4way_19"/>
<trip id="100" depart="74.07000000000001" fromJunction="3way_6" toJunction="3way_2"/>
<trip id="101" depart="74.8107" fromJunction="4way_64" toJunction="4way_40"/>
<trip id="102" depart="75.5514" fromJunction="4way_69" toJunction="4way_65"/>
<trip id="103" depart="76.2921" fromJunction="3way_77" toJunction="4way_70"/>
<trip id="104" depart="77.03280000000001" fromJunction="3way_73" toJunction="4way_31"/>
<trip id="105" depart="77.7735" fromJunction="4way_32" toJunction="3way_2"/>
<trip id="106" depart="78.5142" fromJunction="4way_19" toJunction="3way_36"/>
<trip id="107" depart="79.2549" fromJunction="4way_15" toJunction="4way_39"/>
<trip id="108" depart="79.9956" fromJunction="4way_51" toJunction="4way_66"/>
<trip id="109" depart="80.7363" fromJunction="4way_59" toJunction="3way_63"/>
<trip id="110" depart="81.477" fromJunction="4way_43" toJunction="3way_79"/>
<trip id="111" depart="82.21770000000001" fromJunction="3way_77" toJunction="4way_40"/>
<trip id="112" depart="82.9584" fromJunction="4way_14" toJunction="4way_34"/>
<trip id="113" depart="83.6991" fromJunction="3way_77" toJunction="3way_74"/>
<trip id="114" depart="84.4398" fromJunction="3way_2" toJunction="4way_47"/>
<trip id="115" depart="85.18050000000001" fromJunction="4way_46" toJunction="3way_78"/>
<trip id="116" depart="85.9212" fromJunction="4way_11" toJunction="4way_10"/>
<trip id="117" depart="86.6619" fromJunction="4way_39" toJunction="3way_63"/>
<trip id="118" depart="87.4026" fromJunction="3way_35" toJunction="4way_42"/>
<trip id="119" depart="88.1433" fromJunction="3way_44" toJunction="4way_47"/>
<trip id="120" depart="88.884" fromJunction="4way_28" toJunction="4way_67"/>
<trip id="121" depart="89.6247" fromJunction="3way_79" toJunction="4way_21"/>
<trip id="122" depart="90.36540000000001" fromJunction="4way_29" toJunction="3way_53"/>
<trip id="123" depart="91.1061" fromJunction="4way_34" toJunction="3way_9"/>
<trip id="124" depart="91.8468" fromJunction="4way_23" toJunction="4way_32"/>
<trip id="125" depart="92.5875" fromJunction="3way_7" toJunction="4way_69"/>
<trip id="126" depart="93.32820000000001" fromJunction="4way_39" toJunction="4way_12"/>
<trip id="127" depart="94.0689" fromJunction="3way_54" toJunction="4way_52"/>
<trip id="128" depart="94.8096" fromJunction="3way_17" toJunction="3way_75"/>
<trip id="129" depart="95.55030000000001" fromJunction="4way_25" toJunction="3way_2"/>
<trip id="130" depart="96.291" fromJunction="4way_50" toJunction="4way_31"/>
<trip id="131" depart="97.0317" fromJunction="4way_39" toJunction="3way_63"/>
<trip id="132" depart="97.7724" fromJunction="4way_29" toJunction="3way_5"/>
<trip id="133" depart="98.51310000000001" fromJunction="4way_51" toJunction="4way_61"/>
<trip id="134" depart="99.2538" fromJunction="4way_52" toJunction="3way_18"/>
<trip id="135" depart="99.9945" fromJunction="4way_43" toJunction="3way_76"/>
<trip id="136" depart="100.7352" fromJunction="4way_59" toJunction="4way_34"/>
<trip id="137" depart="101.47590000000001" fromJunction="4way_51" toJunction="4way_66"/>
<trip id="138" depart="102.2166" fromJunction="4way_33" toJunction="3way_54"/>
<trip id="139" depart="102.9573" fromJunction="3way_2" toJunction="4way_57"/>
<trip id="140" depart="103.69800000000001" fromJunction="3way_53" toJunction="3way_18"/>
<trip id="141" depart="104.4387" fromJunction="4way_20" toJunction="4way_61"/>
<trip id="142" depart="105.1794" fromJunction="4way_13" toJunction="4way_38"/>
<trip id="143" depart="105.9201" fromJunction="3way_44" toJunction="4way_10"/>
<trip id="144" depart="106.66080000000001" fromJunction="3way_79" toJunction="4way_15"/>
<trip id="145" depart="107.4015" fromJunction="3way_76" toJunction="4way_47"/>
<trip id="146" depart="108.1422" fromJunction="4way_42" toJunction="3way_17"/>
<trip id="147" depart="108.8829" fromJunction="4way_43" toJunction="4way_52"/>
<trip id="148" depart="109.62360000000001" fromJunction="4way_41" toJunction="4way_69"/>
<trip id="149" depart="110.3643" fromJunction="3way_7" toJunction="3way_27"/>
<trip id="150" depart="111.105" fromJunction="3way_76" toJunction="4way_37"/>
<trip id="151" depart="111.84570000000001" fromJunction="3way_5" toJunction="3way_44"/>
<trip id="152" depart="112.5864" fromJunction="3way_1" toJunction="4way_67"/>
<trip id="153" depart="113.3271" fromJunction="3way_53" toJunction="4way_41"/>
<trip id="154" depart="114.0678" fromJunction="3way_75" toJunction="4way_31"/>
<trip id="155" depart="114.80850000000001" fromJunction="4way_12" toJunction="4way_46"/>
<trip id="156" depart="115.5492" fromJunction="4way_67" toJunction="4way_42"/>
<trip id="157" depart="116.2899" fromJunction="3way_44" toJunction="3way_73"/>
<trip id="158" depart="117.0306" fromJunction="3way_45" toJunction="3way_5"/>
<trip id="159" depart="117.77130000000001" fromJunction="4way_11" toJunction="3way_73"/>
<trip id="160" depart="118.512" fromJunction="4way_49" toJunction="4way_40"/>
<trip id="161" depart="119.2527" fromJunction="4way_19" toJunction="3way_63"/>
<trip id="162" depart="119.99340000000001" fromJunction="4way_50" toJunction="3way_71"/>
<trip id="163" depart="120.7341" fromJunction="4way_49" toJunction="3way_5"/>
<trip id="164" depart="121.4748" fromJunction="4way_10" toJunction="3way_74"/>
<trip id="165" depart="122.2155" fromJunction="3way_63" toJunction="4way_39"/>
<trip id="166" depart="122.95620000000001" fromJunction="3way_78" toJunction="4way_10"/>
<trip id="167" depart="123.6969" fromJunction="3way_4" toJunction="4way_11"/>
<trip id="168" depart="124.4376" fromJunction="3way_6" toJunction="4way_59"/>
<trip id="169" depart="125.17830000000001" fromJunction="3way_45" toJunction="4way_47"/>
<trip id="170" depart="125.91900000000001" fromJunction="4way_43" toJunction="4way_30"/>
<trip id="171" depart="126.6597" fromJunction="3way_3" toJunction="4way_13"/>
<trip id="172" depart="127.4004" fromJunction="4way_47" toJunction="4way_55"/>
<trip id="173" depart="128.1411" fromJunction="4way_40" toJunction="4way_65"/>
<trip id="174" depart="128.8818" fromJunction="3way_35" toJunction="3way_63"/>
<trip id="175" depart="129.6225" fromJunction="4way_43" toJunction="4way_28"/>
<trip id="176" depart="130.3632" fromJunction="4way_69" toJunction="3way_79"/>
<trip id="177" depart="131.1039" fromJunction="4way_11" toJunction="4way_65"/>
<trip id="178" depart="131.8446" fromJunction="4way_11" toJunction="4way_51"/>
<trip id="179" depart="132.58530000000002" fromJunction="4way_28" toJunction="4way_67"/>
<trip id="180" depart="133.326" fromJunction="4way_49" toJunction="4way_69"/>
<trip id="181" depart="134.0667" fromJunction="3way_27" toJunction="4way_49"/>
<trip id="182" depart="134.8074" fromJunction="4way_66" toJunction="4way_32"/>
<trip id="183" depart="135.5481" fromJunction="3way_62" toJunction="3way_75"/>
<trip id="184" depart="136.2888" fromJunction="4way_43" toJunction="4way_59"/>
<trip id="185" depart="137.0295" fromJunction="4way_39" toJunction="4way_11"/>
<trip id="186" depart="137.77020000000002" fromJunction="4way_11" toJunction="4way_42"/>
<trip id="187" depart="138.5109" fromJunction="4way_30" toJunction="4way_43"/>
<trip id="188" depart="139.2516" fromJunction="4way_69" toJunction="4way_15"/>
<trip id="189" depart="139.9923" fromJunction="3way_62" toJunction="4way_68"/>
<trip id="190" depart="140.733" fromJunction="4way_28" toJunction="4way_66"/>
<trip id="191" depart="141.4737" fromJunction="4way_46" toJunction="3way_5"/>
<trip id="192" depart="142.2144" fromJunction="4way_33" toJunction="3way_74"/>
<trip id="193" depart="142.95510000000002" fromJunction="4way_43" toJunction="3way_3"/>
<trip id="194" depart="143.6958" fromJunction="3way_79" toJunction="3way_2"/>
<trip id="195" depart="144.4365" fromJunction="4way_25" toJunction="4way_28"/>
<trip id="196" depart="145.1772" fromJunction="4way_34" toJunction="3way_17"/>
<trip id="197" depart="145.9179" fromJunction="4way_64" toJunction="4way_42"/>
<trip id="198" depart="146.6586" fromJunction="3way_76" toJunction="3way_27"/>
<trip id="199" depart="147.3993" fromJunction="3way_3" toJunction="4way_57"/>
<trip id="200" depart="148.14000000000001" fromJunction="4way_55" toJunction="3way_2"/>
<trip id="201" depart="148.88070000000002" fromJunction="3way_74" toJunction="3way_6"/>
<trip id="202" depart="149.6214" fromJunction="3way_74" toJunction="3way_76"/>
<trip id="203" depart="150.3621" fromJunction="3way_1" toJunction="3way_44"/>
<trip id="204" depart="151.1028" fromJunction="4way_57" toJunction="3way_26"/>
<trip id="205" depart="151.8435" fromJunction="4way_70" toJunction="4way_61"/>
<trip id="206" depart="152.5842" fromJunction="3way_62" toJunction="4way_37"/>
<trip id="207" depart="153.3249" fromJunction="4way_29" toJunction="4way_13"/>
<trip id="208" depart="154.06560000000002" fromJunction="3way_6" toJunction="4way_70"/>
<trip id="209" depart="154.8063" fromJunction="3way_54" toJunction="4way_50"/>
<trip id="210" depart="155.547" fromJunction="4way_31" toJunction="3way_75"/>
<trip id="211" depart="156.2877" fromJunction="4way_31" toJunction="3way_75"/>
<trip id="212" depart="157.0284" fromJunction="4way_46" toJunction="4way_47"/>
<trip id="213" depart="157.7691" fromJunction="3way_54" toJunction="4way_12"/>
<trip id="214" depart="158.5098" fromJunction="4way_37" toJunction="4way_58"/>
<trip id="215" depart="159.25050000000002" fromJunction="4way_15" toJunction="3way_9"/>
<trip id="216" depart="159.9912" fromJunction="3way_4" toJunction="4way_25"/>
<trip id="217" depart="160.7319" fromJunction="3way_18" toJunction="3way_76"/>
<trip id="218" depart="161.4726" fromJunction="4way_61" toJunction="4way_68"/>
<trip id="219" depart="162.2133" fromJunction="4way_69" toJunction="4way_52"/>
<trip id="220" depart="162.954" fromJunction="4way_70" toJunction="3way_54"/>
<trip id="221" depart="163.6947" fromJunction="3way_26" toJunction="3way_74"/>
<trip id="222" depart="164.43540000000002" fromJunction="3way_76" toJunction="4way_43"/>
<trip id="223" depart="165.17610000000002" fromJunction="3way_5" toJunction="4way_49"/>
<trip id="224" depart="165.9168" fromJunction="4way_51" toJunction="4way_14"/>
<trip id="225" depart="166.6575" fromJunction="4way_19" toJunction="3way_73"/>
<trip id="226" depart="167.3982" fromJunction="4way_23" toJunction="4way_10"/>
<trip id="227" depart="168.1389" fromJunction="3way_71" toJunction="3way_75"/>
<trip id="228" depart="168.8796" fromJunction="3way_45" toJunction="4way_64"/>
<trip id="229" depart="169.62030000000001" fromJunction="3way_75" toJunction="4way_24"/>
<trip id="230" depart="170.36100000000002" fromJunction="4way_34" toJunction="4way_38"/>
<trip id="231" depart="171.1017" fromJunction="4way_42" toJunction="4way_66"/>
<trip id="232" depart="171.8424" fromJunction="4way_23" toJunction="4way_34"/>
<trip id="233" depart="172.5831" fromJunction="4way_52" toJunction="4way_49"/>
<trip id="234" depart="173.3238" fromJunction="4way_64" toJunction="4way_70"/>
<trip id="235" depart="174.0645" fromJunction="3way_54" toJunction="3way_6"/>
<trip id="236" depart="174.8052" fromJunction="4way_46" toJunction="3way_53"/>
<trip id="237" depart="175.54590000000002" fromJunction="4way_48" toJunction="3way_44"/>
<trip id="238" depart="176.2866" fromJunction="4way_60" toJunction="4way_19"/>
<trip id="239" depart="177.0273" fromJunction="4way_12" toJunction="4way_52"/>
<trip id="240" depart="177.768" fromJunction="4way_39" toJunction="3way_63"/>
<trip id="241" depart="178.5087" fromJunction="4way_37" toJunction="4way_69"/>
<trip id="242" depart="179.2494" fromJunction="3way_73" toJunction="4way_12"/>
<trip id="243" depart="179.9901" fromJunction="4way_28" toJunction="4way_11"/>
<trip id="244" depart="180.73080000000002" fromJunction="4way_38" toJunction="3way_74"/>
<trip id="245" depart="181.47150000000002" fromJunction="4way_10" toJunction="3way_45"/>
<trip id="246" depart="182.2122" fromJunction="4way_23" toJunction="4way_56"/>
<trip id="247" depart="182.9529" fromJunction="4way_25" toJunction="3way_27"/>
<trip id="248" depart="183.6936" fromJunction="3way_4" toJunction="4way_42"/>
<trip id="249" depart="184.4343" fromJunction="4way_64" toJunction="3way_74"/>
<trip id="250" depart="185.175" fromJunction="3way_18" toJunction="3way_26"/>
<trip id="251" depart="185.91570000000002" fromJunction="4way_40" toJunction="4way_14"/>
<trip id="252" depart="186.65640000000002" fromJunction="4way_58" toJunction="4way_57"/>
<trip id="253" depart="187.3971" fromJunction="3way_18" toJunction="3way_78"/>
<trip id="254" depart="188.1378" fromJunction="4way_51" toJunction="4way_40"/>
<trip id="255" depart="188.8785" fromJunction="3way_63" toJunction="4way_65"/>
<trip id="256" depart="189.6192" fromJunction="4way_58" toJunction="3way_3"/>
<trip id="257" depart="190.3599" fromJunction="4way_10" toJunction="3way_1"/>
<trip id="258" depart="191.10060000000001" fromJunction="4way_25" toJunction="4way_56"/>
<trip id="259" depart="191.84130000000002" fromJunction="4way_37" toJunction="3way_7"/>
<trip id="260" depart="192.582" fromJunction="3way_18" toJunction="3way_2"/>
<trip id="261" depart="193.3227" fromJunction="3way_63" toJunction="4way_57"/>
<trip id="262" depart="194.0634" fromJunction="3way_26" toJunction="3way_77"/>
<trip id="263" depart="194.8041" fromJunction="4way_49" toJunction="4way_30"/>
<trip id="264" depart="195.5448" fromJunction="4way_43" toJunction="4way_31"/>
<trip id="265" depart="196.2855" fromJunction="4way_13" toJunction="3way_1"/>
<trip id="266" depart="197.02620000000002" fromJunction="4way_39" toJunction="4way_48"/>
<trip id="267" depart="197.7669" fromJunction="3way_2" toJunction="4way_52"/>
<trip id="268" depart="198.5076" fromJunction="4way_68" toJunction="4way_49"/>
<trip id="269" depart="199.2483" fromJunction="3way_27" toJunction="4way_47"/>
<trip id="270" depart="199.989" fromJunction="3way_17" toJunction="4way_50"/>
<trip id="271" depart="200.7297" fromJunction="4way_56" toJunction="4way_64"/>
<trip id="272" depart="201.4704" fromJunction="3way_7" toJunction="4way_49"/>
<trip id="273" depart="202.21110000000002" fromJunction="4way_37" toJunction="3way_76"/>
<trip id="274" depart="202.95180000000002" fromJunction="4way_60" toJunction="4way_57"/>
<trip id="275" depart="203.6925" fromJunction="3way_44" toJunction="4way_57"/>
<trip id="276" depart="204.4332" fromJunction="4way_51" toJunction="4way_61"/>
<trip id="277" depart="205.1739" fromJunction="4way_25" toJunction="4way_38"/>
<trip id="278" depart="205.9146" fromJunction="4way_25" toJunction="4way_65"/>
<trip id="279" depart="206.6553" fromJunction="4way_52" toJunction="4way_15"/>
<trip id="280" depart="207.39600000000002" fromJunction="3way_3" toJunction="4way_16"/>
<trip id="281" depart="208.13670000000002" fromJunction="4way_19" toJunction="3way_71"/>
<trip id="282" depart="208.8774" fromJunction="3way_45" toJunction="4way_43"/>
<trip id="283" depart="209.6181" fromJunction="4way_60" toJunction="3way_62"/>
<trip id="284" depart="210.3588" fromJunction="4way_69" toJunction="4way_64"/>
<trip id="285" depart="211.0995" fromJunction="4way_22" toJunction="3way_62"/>
<trip id="286" depart="211.8402" fromJunction="3way_6" toJunction="4way_55"/>
<trip id="287" depart="212.5809" fromJunction="3way_74" toJunction="4way_49"/>
<trip id="288" depart="213.32160000000002" fromJunction="3way_5" toJunction="3way_4"/>
<trip id="289" depart="214.0623" fromJunction="4way_69" toJunction="3way_5"/>
<trip id="290" depart="214.803" fromJunction="4way_69" toJunction="4way_14"/>
<trip id="291" depart="215.5437" fromJunction="4way_56" toJunction="4way_31"/>
<trip id="292" depart="216.2844" fromJunction="4way_70" toJunction="3way_45"/>
<trip id="293" depart="217.0251" fromJunction="4way_20" toJunction="3way_9"/>
<trip id="294" depart="217.7658" fromJunction="4way_61" toJunction="4way_19"/>
<trip id="295" depart="218.50650000000002" fromJunction="3way_27" toJunction="3way_71"/>
<trip id="296" depart="219.24720000000002" fromJunction="3way_5" toJunction="4way_40"/>
<trip id="297" depart="219.9879" fromJunction="4way_20" toJunction="4way_48"/>
<trip id="298" depart="220.7286" fromJunction="3way_75" toJunction="3way_63"/>
<trip id="299" depart="221.4693" fromJunction="4way_10" toJunction="4way_47"/>
<trip id="300" depart="222.21" fromJunction="3way_27" toJunction="4way_11"/>
<trip id="301" depart="222.9507" fromJunction="3way_44" toJunction="4way_52"/>
<trip id="302" depart="223.69140000000002" fromJunction="3way_18" toJunction="3way_17"/>
<trip id="303" depart="224.43210000000002" fromJunction="4way_22" toJunction="4way_39"/>
<trip id="304" depart="225.1728" fromJunction="4way_70" toJunction="4way_28"/>
<trip id="305" depart="225.9135" fromJunction="4way_67" toJunction="3way_9"/>
<trip id="306" depart="226.6542" fromJunction="4way_68" toJunction="4way_13"/>
<trip id="307" depart="227.3949" fromJunction="4way_60" toJunction="4way_61"/>
<trip id="308" depart="228.1356" fromJunction="4way_49" toJunction="4way_32"/>
<trip id="309" depart="228.87630000000001" fromJunction="3way_53" toJunction="3way_27"/>
<trip id="310" depart="229.61700000000002" fromJunction="3way_75" toJunction="3way_5"/>
<trip id="311" depart="230.3577" fromJunction="4way_56" toJunction="4way_55"/>
<trip id="312" depart="231.0984" fromJunction="4way_43" toJunction="4way_41"/>
<trip id="313" depart="231.8391" fromJunction="3way_26" toJunction="3way_35"/>
<trip id="314" depart="232.5798" fromJunction="4way_23" toJunction="4way_39"/>
<trip id="315" depart="233.3205" fromJunction="4way_34" toJunction="4way_33"/>
<trip id="316" depart="234.0612" fromJunction="4way_28" toJunction="4way_61"/>
<trip id="317" depart="234.80190000000002" fromJunction="3way_53" toJunction="4way_19"/>
<trip id="318" depart="235.54260000000002" fromJunction="4way_22" toJunction="4way_40"/>
<trip id="319" depart="236.2833" fromJunction="3way_17" toJunction="4way_42"/>
<trip id="320" depart="237.024" fromJunction="4way_30" toJunction="4way_38"/>
<trip id="321" depart="237.7647" fromJunction="3way_71" toJunction="3way_75"/>
<trip id="322" depart="238.5054" fromJunction="3way_5" toJunction="4way_42"/>
<trip id="323" depart="239.2461" fromJunction="3way_26" toJunction="4way_20"/>
<trip id="324" depart="239.98680000000002" fromJunction="4way_61" toJunction="4way_11"/>
<trip id="325" depart="240.72750000000002" fromJunction="4way_33" toJunction="4way_46"/>
<trip id="326" depart="241.4682" fromJunction="3way_73" toJunction="3way_35"/>
<trip id="327" depart="242.2089" fromJunction="4way_28" toJunction="4way_37"/>
<trip id="328" depart="242.9496" fromJunction="3way_18" toJunction="4way_31"/>
<trip id="329" depart="243.6903" fromJunction="4way_13" toJunction="4way_58"/>
<trip id="330" depart="244.431" fromJunction="4way_55" toJunction="4way_28"/>
<trip id="331" depart="245.17170000000002" fromJunction="3way_6" toJunction="4way_57"/>
<trip id="332" depart="245.91240000000002" fromJunction="4way_22" toJunction="4way_15"/>
<trip id="333" depart="246.6531" fromJunction="4way_65" toJunction="4way_67"/>
<trip id="334" depart="247.3938" fromJunction="4way_37" toJunction="3way_26"/>
<trip id="335" depart="248.1345" fromJunction="3way_36" toJunction="4way_37"/>
<trip id="336" depart="248.8752" fromJunction="4way_14" toJunction="3way_3"/>
<trip id="337" depart="249.6159" fromJunction="4way_48" toJunction="3way_26"/>
<trip id="338" depart="250.35660000000001" fromJunction="4way_66" toJunction="4way_58"/>
<trip id="339" depart="251.09730000000002" fromJunction="3way_17" toJunction="4way_43"/>
<trip id="340" depart="251.83800000000002" fromJunction="3way_3" toJunction="4way_42"/>
<trip id="341" depart="252.5787" fromJunction="4way_37" toJunction="4way_65"/>
<trip id="342" depart="253.3194" fromJunction="4way_10" toJunction="4way_56"/>
<trip id="343" depart="254.0601" fromJunction="3way_2" toJunction="3way_79"/>
<trip id="344" depart="254.8008" fromJunction="4way_24" toJunction="4way_47"/>
<trip id="345" depart="255.5415" fromJunction="3way_76" toJunction="4way_10"/>
<trip id="346" depart="256.2822" fromJunction="3way_17" toJunction="3way_76"/>
<trip id="347" depart="257.0229" fromJunction="3way_6" toJunction="3way_73"/>
<trip id="348" depart="257.7636" fromJunction="4way_33" toJunction="3way_6"/>
<trip id="349" depart="258.5043" fromJunction="4way_21" toJunction="3way_62"/>
<trip id="350" depart="259.245" fromJunction="4way_11" toJunction="4way_41"/>
<trip id="351" depart="259.9857" fromJunction="3way_78" toJunction="3way_53"/>
<trip id="352" depart="260.7264" fromJunction="4way_56" toJunction="4way_55"/>
<trip id="353" depart="261.4671" fromJunction="4way_50" toJunction="3way_18"/>
<trip id="354" depart="262.2078" fromJunction="4way_25" toJunction="4way_23"/>
<trip id="355" depart="262.9485" fromJunction="4way_60" toJunction="3way_3"/>
<trip id="356" depart="263.6892" fromJunction="4way_51" toJunction="4way_28"/>
<trip id="357" depart="264.42990000000003" fromJunction="4way_70" toJunction="4way_49"/>
<trip id="358" depart="265.17060000000004" fromJunction="4way_10" toJunction="4way_32"/>
<trip id="359" depart="265.9113" fromJunction="4way_10" toJunction="4way_38"/>
<trip id="360" depart="266.652" fromJunction="3way_73" toJunction="4way_10"/>
<trip id="361" depart="267.3927" fromJunction="4way_40" toJunction="4way_38"/>
<trip id="362" depart="268.1334" fromJunction="4way_56" toJunction="3way_63"/>
<trip id="363" depart="268.8741" fromJunction="3way_62" toJunction="3way_35"/>
<trip id="364" depart="269.6148" fromJunction="4way_52" toJunction="3way_4"/>
<trip id="365" depart="270.3555" fromJunction="3way_71" toJunction="3way_1"/>
<trip id="366" depart="271.0962" fromJunction="3way_7" toJunction="4way_57"/>
<trip id="367" depart="271.8369" fromJunction="4way_67" toJunction="4way_51"/>
<trip id="368" depart="272.5776" fromJunction="4way_47" toJunction="4way_52"/>
<trip id="369" depart="273.3183" fromJunction="4way_12" toJunction="3way_45"/>
<trip id="370" depart="274.059" fromJunction="4way_56" toJunction="4way_25"/>
<trip id="371" depart="274.79970000000003" fromJunction="4way_51" toJunction="3way_73"/>