<?xml version="1.0" encoding="UTF-8"?>
<nodes xmlns:xsi="http://www.w3.org/2001/XMLSchema-instance" xsi:noNamespaceSchemaLocation="http://sumo.dlr.de/xsd/nodes_file.xsd">
    <node id="3way_1" x="100.00" y="0.00" type="traffic_light" tlLayout="opposites"/>
    <node id="3way_10" x="1000.00" y="0.00" type="traffic_light" tlLayout="opposites"/>
    <node id="3way_100" x="0.00" y="-400.00" type="traffic_light" tlLayout="opposites"/>
    <node id="3way_11" x="1100.00" y="0.00" type="traffic_light" tlLayout="opposites"/>
    <node id="3way_12" x="1200.00" y="0.00" type="traffic_light" tlLayout="opposites"/>
    <node id="3way_124" x="2400.00" y="-400.00" type="traffic_light" tlLayout="opposites"/>
    <node id="3way_125" x="0.00" y="-500.00" type="traffic_light" tlLayout="opposites"/>
    <node id="3way_13" x="1300.00" y="0.00" type="traffic_light" tlLayout="opposites"/>
    <node id="3way_14" x="1400.00" y="0.00" type="traffic_light" tlLayout="opposites"/>
    <node id="3way_149" x="2400.00" y="-500.00" type="traffic_light" tlLayout="opposites"/>
    <node id="3way_15" x="1500.00" y="0.00" type="traffic_light" tlLayout="opposites"/>
    <node id="3way_150" x="0.00" y="-600.00" type="traffic_light" tlLayout="opposites"/>
    <node id="3way_16" x="1600.00" y="0.00" type="traffic_light" tlLayout="opposites"/>
    <node id="3way_17" x="1700.00" y="0.00" type="traffic_light" tlLayout="opposites"/>
    <node id="3way_174" x="2400.00" y="-600.00" type="traffic_light" tlLayout="opposites"/>
    <node id="3way_175" x="0.00" y="-700.00" type="traffic_light" tlLayout="opposites"/>
    <node id="3way_18" x="1800.00" y="0.00" type="traffic_light" tlLayout="opposites"/>
    <node id="3way_19" x="1900.00" y="0.00" type="traffic_light" tlLayout="opposites"/>
    <node id="3way_199" x="2400.00" y="-700.00" type="traffic_light" tlLayout="opposites"/>
    <node id="3way_2" x="200.00" y="0.00" type="traffic_light" tlLayout="opposites"/>
    <node id="3way_20" x="2000.00" y="0.00" type="traffic_light" tlLayout="opposites"/>
    <node id="3way_200" x="0.00" y="-800.00" type="traffic_light" tlLayout="opposites"/>
    <node id="3way_21" x="2100.00" y="0.00" type="traffic_light" tlLayout="opposites"/>
    <node id="3way_22" x="2200.00" y="0.00" type="traffic_light" tlLayout="opposites"/>
    <node id="3way_224" x="2400.00" y="-800.00" type="traffic_light" tlLayout="opposites"/>
    <node id="3way_225" x="0.00" y="-900.00" type="traffic_light" tlLayout="opposites"/>
    <node id="3way_23" x="2300.00" y="0.00" type="traffic_light" tlLayout="opposites"/>
    <node id="3way_249" x="2400.00" y="-900.00" type="traffic_light" tlLayout="opposites"/>
    <node id="3way_25" x="0.00" y="-100.00" type="traffic_light" tlLayout="opposites"/>
    <node id="3way_250" x="0.00" y="-1000.00" type="traffic_light" tlLayout="opposites"/>
    <node id="3way_274" x="2400.00" y="-1000.00" type="traffic_light" tlLayout="opposites"/>
    <node id="3way_275" x="0.00" y="-1100.00" type="traffic_light" tlLayout="opposites"/>
    <node id="3way_299" x="2400.00" y="-1100.00" type="traffic_light" tlLayout="opposites"/>
    <node id="3way_3" x="300.00" y="0.00" type="traffic_light" tlLayout="opposites"/>
    <node id="3way_300" x="0.00" y="-1200.00" type="traffic_light" tlLayout="opposites"/>
    <node id="3way_324" x="2400.00" y="-1200.00" type="traffic_light" tlLayout="opposites"/>
    <node id="3way_325" x="0.00" y="-1300.00" type="traffic_light" tlLayout="opposites"/>
    <node id="3way_349" x="2400.00" y="-1300.00" type="traffic_light" tlLayout="opposites"/>
    <node id="3way_350" x="0.00" y="-1400.00" type="traffic_light" tlLayout="opposites"/>
    <node id="3way_374" x="2400.00" y="-1400.00" type="traffic_light" tlLayout="opposites"/>
    <node id="3way_375" x="0.00" y="-1500.00" type="traffic_light" tlLayout="opposites"/>
    <node id="3way_399" x="2400.00" y="-1500.00" type="traffic_light" tlLayout="opposites"/>
    <node id="3way_4" x="400.00" y="0.00" type="traffic_light" tlLayout="opposites"/>
    <node id="3way_400" x="0.00" y="-1600.00" type="traffic_light" tlLayout="opposites"/>
    <node id="3way_424" x="2400.00" y="-1600.00" type="traffic_light" tlLayout="opposites"/>
    <node id="3way_425" x="0.00" y="-1700.00" type="traffic_light" tlLayout="opposites"/>
    <node id="3way_449" x="2400.00" y="-1700.00" type="traffic_light" tlLayout="opposites"/>
    <node id="3way_450" x="0.00" y="-1800.00" type="traffic_light" tlLayout="opposites"/>
    <node id="3way_474" x="2400.00" y="-1800.00" type="traffic_light" tlLayout="opposites"/>
    <node id="3way_475" x="0.00" y="-1900.00" type="traffic_light" tlLayout="opposites"/>
    <node id="3way_49" x="2400.00" y="-100.00" type="traffic_light" tlLayout="opposites"/>
    <node id="3way_499" x="2400.00" y="-1900.00" type="traffic_light" tlLayout="opposites"/>
    <node id="3way_5" x="500.00" y="0.00" type="traffic_light" tlLayout="opposites"/>
    <node id="3way_50" x="0.00" y="-200.00" type="traffic_light" tlLayout="opposites"/>
    <node id="3way_500" x="0.00" y="-2000.00" type="traffic_light" tlLayout="opposites"/>
    <node id="3way_524" x="2400.00" y="-2000.00" type="traffic_light" tlLayout="opposites"/>
    <node id="3way_525" x="0.00" y="-2100.00" type="traffic_light" tlLayout="opposites"/>
    <node id="3way_549" x="2400.00" y="-2100.00" type="traffic_light" tlLayout="opposites"/>
    <node id="3way_550" x="0.00" y="-2200.00" type="traffic_light" tlLayout="opposites"/>
    <node id="3way_574" x="2400.00" y="-2200.00" type="traffic_light" tlLayout="opposites"/>
    <node id="3way_575" x="0.00" y="-2300.00" type="traffic_light" tlLayout="opposites"/>
    <node id="3way_599" x="2400.00" y="-2300.00" type="traffic_light" tlLayout="opposites"/>
    <node id="3way_6" x="600.00" y="0.00" type="traffic_light" tlLayout="opposites"/>
    <node id="3way_601" x="100.00" y="-2400.00" type="traffic_light" tlLayout="opposites"/>
    <node id="3way_602" x="200.00" y="-2400.00" type="traffic_light" tlLayout="opposites"/>
    <node id="3way_603" x="300.00" y="-2400.00" type="traffic_light" tlLayout="opposites"/>
    <node id="3way_604" x="400.00" y="-2400.00" type="traffic_light" tlLayout="opposites"/>
    <node id="3way_605" x="500.00" y="-2400.00" type="traffic_light" tlLayout="opposites"/>
    <node id="3way_606" x="600.00" y="-2400.00" type="traffic_light" tlLayout="opposites"/>
    <node id="3way_607" x="700.00" y="-2400.00" type="traffic_light" tlLayout="opposites"/>
    <node id="3way_608" x="800.00" y="-2400.00" type="traffic_light" tlLayout="opposites"/>
    <node id="3way_609" x="900.00" y="-2400.00" type="traffic_light" tlLayout="opposites"/>
    <node id="3way_610" x="1000.00" y="-2400.00" type="traffic_light" tlLayout="opposites"/>
    <node id="3way_611" x="1100.00" y="-2400.00" type="traffic_light" tlLayout="opposites"/>
    <node id="3way_612" x="1200.00" y="-2400.00" type="traffic_light" tlLayout="opposites"/>
    <node id="3way_613" x="1300.00" y="-2400.00" type="traffic_light" tlLayout="opposites"/>
    <node id="3way_614" x="1400.00" y="-2400.00" type="traffic_light" tlLayout="opposites"/>
    <node id="3way_615" x="1500.00" y="-2400.00" type="traffic_light" tlLayout="opposites"/>
    <node id="3way_616" x="1600.00" y="-2400.00" type="traffic_light" tlLayout="opposites"/>
    <node id="3way_617" x="1700.00" y="-2400.00" type="traffic_light" tlLayout="opposites"/>
    <node id="3way_618" x="1800.00" y="-2400.00" type="traffic_light" tlLayout="opposites"/>
    <node id="3way_619" x="1900.00" y="-2400.00" type="traffic_light" tlLayout="opposites"/>
    <node id="3way_620" x="2000.00" y="-2400.00" type="traffic_light" tlLayout="opposites"/>
    <node id="3way_621" x="2100.00" y="-2400.00" type="traffic_light" tlLayout="opposites"/>
    <node id="3way_622" x="2200.00" y="-2400.00" type="traffic_light" tlLayout="opposites"/>
    <node id="3way_623" x="2300.00" y="-2400.00" type="traffic_light" tlLayout="opposites"/>
    <node id="3way_7" x="700.00" y="0.00" type="traffic_light" tlLayout="opposites"/>
    <node id="3way_74" x="2400.00" y="-200.00" type="traffic_light" tlLayout="opposites"/>
    <node id="3way_75" x="0.00" y="-300.00" type="traffic_light" tlLayout="opposites"/>
    <node id="3way_8" x="800.00" y="0.00" type="traffic_light" tlLayout="opposites"/>
    <node id="3way_9" x="900.00" y="0.00" type="traffic_light" tlLayout="opposites"/>
    <node id="3way_99" x="2400.00" y="-300.00" type="traffic_light" tlLayout="opposites"/>
    <node id="4way_101" x="100.00" y="-400.00" type="traffic_light" tlLayout="opposites"/>
    <node id="4way_102" x="200.00" y="-400.00" type="traffic_light" tlLayout="opposites"/>
    <node id="4way_103" x="300.00" y="-400.00" type="traffic_light" tlLayout="opposites"/>
    <node id="4way_104" x="400.00" y="-400.00" type="traffic_light" tlLayout="opposites"/>
    <node id="4way_105" x="500.00" y="-400.00" type="traffic_light" tlLayout="opposites"/>
    <node id="4way_106" x="600.00" y="-400.00" type="traffic_light" tlLayout="opposites"/>
    <node id="4way_107" x="700.00" y="-400.00" type="traffic_light" tlLayout="opposites"/>
    <node id="4way_108" x="800.00" y="-400.00" type="traffic_light" tlLayout="opposites"/>
    <node id="4way_109" x="900.00" y="-400.00" type="traffic_light" tlLayout="opposites"/>
    <node id="4way_110" x="1000.00" y="-400.00" type="traffic_light" tlLayout="opposites"/>
    <node id="4way_111" x="1100.00" y="-400.00" type="traffic_light" tlLayout="opposites"/>
    <node id="4way_112" x="1200.00" y="-400.00" type="traffic_light" tlLayout="opposites"/>
    <node id="4way_113" x="1300.00" y="-400.00" type="traffic_light" tlLayout="opposites"/>
    <node id="4way_114" x="1400.00" y="-400.00" type="traffic_light" tlLayout="opposites"/>
    <node id="4way_115" x="1500.00" y="-400.00" type="traffic_light" tlLayout="opposites"/>
    <node id="4way_116" x="1600.00" y="-400.00" type="traffic_light" tlLayout="opposites"/>
    <node id="4way_117" x="1700.00" y="-400.00" type="traffic_light" tlLayout="opposites"/>
    <node id="4way_118" x="1800.00" y="-400.00" type="traffic_light" tlLayout="opposites"/>
    <node id="4way_119" x="1900.00" y="-400.00" type="traffic_light" tlLayout="opposites"/>
    <node id="4way_120" x="2000.00" y="-400.00" type="traffic_light" tlLayout="opposites"/>
    <node id="4way_121" x="2100.00" y="-400.00" type="traffic_light" tlLayout="opposites"/>
    <node id="4way_122" x="2200.00" y="-400.00" type="traffic_light" tlLayout="opposites"/>
    <node id="4way_123" x="2300.00" y="-400.00" type="traffic_light" tlLayout="opposites"/>
    <node id="4way_126" x="100.00" y="-500.00" type="traffic_light" tlLayout="opposites"/>
    <node id="4way_127" x="200.00" y="-500.00" type="traffic_light" tlLayout="opposites"/>
    <node id="4way_128" x="300.00" y="-500.00" type="traffic_light" tlLayout="opposites"/>
    <node id="4way_129" x="400.00" y="-500.00" type="traffic_light" tlLayout="opposites"/>
    <node id="4way_130" x="500.00" y="-500.00" type="traffic_light" tlLayout="opposites"/>
    <node id="4way_131" x="600.00" y="-500.00" type="traffic_light" tlLayout="opposites"/>
    <node id="4way_132" x="700.00" y="-500.00" type="traffic_light" tlLayout="opposites"/>
    <node id="4way_133" x="800.00" y="-500.00" type="traffic_light" tlLayout="opposites"/>
    <node id="4way_134" x="900.00" y="-500.00" type="traffic_light" tlLayout="opposites"/>
    <node id="4way_135" x="1000.00" y="-500.00" type="traffic_light" tlLayout="opposites"/>
    <node id="4way_136" x="1100.00" y="-500.00" type="traffic_light" tlLayout="opposites"/>
    <node id="4way_137" x="1200.00" y="-500.00" type="traffic_light" tlLayout="opposites"/>
    <node id="4way_138" x="1300.00" y="-500.00" type="traffic_light" tlLayout="opposites"/>
    <node id="4way_139" x="1400.00" y="-500.00" type="traffic_light" tlLayout="opposites"/>
    <node id="4way_140" x="1500.00" y="-500.00" type="traffic_light" tlLayout="opposites"/>
    <node id="4way_141" x="1600.00" y="-500.00" type="traffic_light" tlLayout="opposites"/>
    <node id="4way_142" x="1700.00" y="-500.00" type="traffic_light" tlLayout="opposites"/>
    <node id="4way_143" x="1800.00" y="-500.00" type="traffic_light" tlLayout="opposites"/>
    <node id="4way_144" x="1900.00" y="-500.00" type="traffic_light" tlLayout="opposites"/>
    <node id="4way_145" x="2000.00" y="-500.00" type="traffic_light" tlLayout="opposites"/>
    <node id="4way_146" x="2100.00" y="-500.00" type="traffic_light" tlLayout="opposites"/>
    <node id="4way_147" x="2200.00" y="-500.00" type="traffic_light" tlLayout="opposites"/>
    <node id="4way_148" x="2300.00" y="-500.00" type="traffic_light" tlLayout="opposites"/>
    <node id="4way_151" x="100.00" y="-600.00" type="traffic_light" tlLayout="opposites"/>
    <node id="4way_152" x="200.00" y="-600.00" type="traffic_light" tlLayout="opposites"/>
    <node id="4way_153" x="300.00" y="-600.00" type="traffic_light" tlLayout="opposites"/>
    <node id="4way_154" x="400.00" y="-600.00" type="traffic_light" tlLayout="opposites"/>
    <node id="4way_155" x="500.00" y="-600.00" type="traffic_light" tlLayout="opposites"/>
    <node id="4way_156" x="600.00" y="-600.00" type="traffic_light" tlLayout="opposites"/>
    <node id="4way_157" x="700.00" y="-600.00" type="traffic_light" tlLayout="opposites"/>
    <node id="4way_158" x="800.00" y="-600.00" type="traffic_light" tlLayout="opposites"/>
    <node id="4way_159" x="900.00" y="-600.00" type="traffic_light" tlLayout="opposites"/>
    <node id="4way_160" x="1000.00" y="-600.00" type="traffic_light" tlLayout="opposites"/>
    <node id="4way_161" x="1100.00" y="-600.00" type="traffic_light" tlLayout="opposites"/>
    <node id="4way_162" x="1200.00" y="-600.00" type="traffic_light" tlLayout="opposites"/>
    <node id="4way_163" x="1300.00" y="-600.00" type="traffic_light" tlLayout="opposites"/>
    <node id="4way_164" x="1400.00" y="-600.00" type="traffic_light" tlLayout="opposites"/>
    <node id="4way_165" x="1500.00" y="-600.00" type="traffic_light" tlLayout="opposites"/>
    <node id="4way_166" x="1600.00" y="-600.00" type="traffic_light" tlLayout="opposites"/>
    <node id="4way_167" x="1700.00" y="-600.00" type="traffic_light" tlLayout="opposites"/>
    <node id="4way_168" x="1800.00" y="-600.00" type="traffic_light" tlLayout="opposites"/>
    <node id="4way_169" x="1900.00" y="-600.00" type="traffic_light" tlLayout="opposites"/>
    <node id="4way_170" x="2000.00" y="-600.00" type="traffic_light" tlLayout="opposites"/>
    <node id="4way_171" x="2100.00" y="-600.00" type="traffic_light" tlLayout="opposites"/>
    <node id="4way_172" x="2200.00" y="-600.00" type="traffic_light" tlLayout="opposites"/>
    <node id="4way_173" x="2300.00" y="-600.00" type="traffic_light" tlLayout="opposites"/>
    <node id="4way_176" x="100.00" y="-700.00" type="traffic_light" tlLayout="opposites"/>
    <node id="4way_177" x="200.00" y="-700.00" type="traffic_light" tlLayout="opposites"/>
    <node id="4way_178" x="300.00" y="-700.00" type="traffic_light" tlLayout="opposites"/>
    <node id="4way_179" x="400.00" y="-700.00" type="traffic_light" tlLayout="opposites"/>
    <node id="4way_180" x="500.00" y="-700.00" type="traffic_light" tlLayout="opposites"/>
    <node id="4way_181" x="600.00" y="-700.00" type="traffic_light" tlLayout="opposites"/>
    <node id="4way_182" x="700.00" y="-700.00" type="traffic_light" tlLayout="opposites"/>
    <node id="4way_183" x="800.00" y="-700.00" type="traffic_light" tlLayout="opposites"/>
    <node id="4way_184" x="900.00" y="-700.00" type="traffic_light" tlLayout="opposites"/>
    <node id="4way_185" x="1000.00" y="-700.00" type="traffic_light" tlLayout="opposites"/>
    <node id="4way_186" x="1100.00" y="-700.00" type="traffic_light" tlLayout="opposites"/>
    <node id="4way_187" x="1200.00" y="-700.00" type="traffic_light" tlLayout="opposites"/>
    <node id="4way_188" x="1300.00" y="-700.00" type="traffic_light" tlLayout="opposites"/>
    <node id="4way_189" x="1400.00" y="-700.00" type="traffic_light" tlLayout="opposites"/>
    <node id="4way_190" x="1500.00" y="-700.00" type="traffic_light" tlLayout="opposites"/>
    <node id="4way_191" x="1600.00" y="-700.00" type="traffic_light" tlLayout="opposites"/>
    <node id="4way_192" x="1700.00" y="-700.00" type="traffic_light" tlLayout="opposites"/>
    <node id="4way_193" x="1800.00" y="-700.00" type="traffic_light" tlLayout="opposites"/>
    <node id="4way_194" x="1900.00" y="-700.00" type="traffic_light" tlLayout="opposites"/>
    <node id="4way_195" x="2000.00" y="-700.00" type="traffic_light" tlLayout="opposites"/>
    <node id="4way_196" x="2100.00" y="-700.00" type="traffic_light" tlLayout="opposites"/>
    <node id="4way_197" x="2200.00" y="-700.00" type="traffic_light" tlLayout="opposites"/>
    <node id="4way_198" x="2300.00" y="-700.00" type="traffic_light" tlLayout="opposites"/>
    <node id="4way_201" x="100.00" y="-800.00" type="traffic_light" tlLayout="opposites"/>
    <node id="4way_202" x="200.00" y="-800.00" type="traffic_light" tlLayout="opposites"/>
    <node id="4way_203" x="300.00" y="-800.00" type="traffic_light" tlLayout="opposites"/>
    <node id="4way_204" x="400.00" y="-800.00" type="traffic_light" tlLayout="opposites"/>
    <node id="4way_205" x="500.00" y="-800.00" type="traffic_light" tlLayout="opposites"/>
    <node id="4way_206" x="600.00" y="-800.00" type="traffic_light" tlLayout="opposites"/>
    <node id="4way_207" x="700.00" y="-800.00" type="traffic_light" tlLayout="opposites"/>
    <node id="4way_208" x="800.00" y="-800.00" type="traffic_light" tlLayout="opposites"/>
    <node id="4way_209" x="900.00" y="-800.00" type="traffic_light" tlLayout="opposites"/>
    <node id="4way_210" x="1000.00" y="-800.00" type="traffic_light" tlLayout="opposites"/>
    <node id="4way_211" x="1100.00" y="-800.00" type="traffic_light" tlLayout="opposites"/>
    <node id="4way_212" x="1200.00" y="-800.00" type="traffic_light" tlLayout="opposites"/>
    <node id="4way_213" x="1300.00" y="-800.00" type="traffic_light" tlLayout="opposites"/>
    <node id="4way_214" x="1400.00" y="-800.00" type="traffic_light" tlLayout="opposites"/>
    <node id="4way_215" x="1500.00" y="-800.00" type="traffic_light" tlLayout="opposites"/>
    <node id="4way_216" x="1600.00" y="-800.00" type="traffic_light" tlLayout="opposites"/>
    <node id="4way_217" x="1700.00" y="-800.00" type="traffic_light" tlLayout="opposites"/>
    <node id="4way_218" x="1800.00" y="-800.00" type="traffic_light" tlLayout="opposites"/>
    <node id="4way_219" x="1900.00" y="-800.00" type="traffic_light" tlLayout="opposites"/>
    <node id="4way_220" x="2000.00" y="-800.00" type="traffic_light" tlLayout="opposites"/>
    <node id="4way_221" x="2100.00" y="-800.00" type="traffic_light" tlLayout="opposites"/>
    <node id="4way_222" x="2200.00" y="-800.00" type="traffic_light" tlLayout="opposites"/>
    <node id="4way_223" x="2300.00" y="-800.00" type="traffic_light" tlLayout="opposites"/>
    <node id="4way_226" x="100.00" y="-900.00" type="traffic_light" tlLayout="opposites"/>
    <node id="4way_227" x="200.00" y="-900.00" type="traffic_light" tlLayout="opposites"/>
    <node id="4way_228" x="300.00" y="-900.00" type="traffic_light" tlLayout="opposites"/>
    <node id="4way_229" x="400.00" y="-900.00" type="traffic_light" tlLayout="opposites"/>
    <node id="4way_230" x="500.00" y="-900.00" type="traffic_light" tlLayout="opposites"/>
    <node id="4way_231" x="600.00" y="-900.00" type="traffic_light" tlLayout="opposites"/>
    <node id="4way_232" x="700.00" y="-900.00" type="traffic_light" tlLayout="opposites"/>
    <node id="4way_233" x="800.00" y="-900.00" type="traffic_light" tlLayout="opposites"/>
    <node id="4way_234" x="900.00" y="-900.00" type="traffic_light" tlLayout="opposites"/>
    <node id="4way_235" x="1000.00" y="-900.00" type="traffic_light" tlLayout="opposites"/>
    <node id="4way_236" x="1100.00" y="-900.00" type="traffic_light" tlLayout="opposites"/>
    <node id="4way_237" x="1200.00" y="-900.00" type="traffic_light" tlLayout="opposites"/>
    <node id="4way_238" x="1300.00" y="-900.00" type="traffic_light" tlLayout="opposites"/>
    <node id="4way_239" x="1400.00" y="-900.00" type="traffic_light" tlLayout="opposites"/>
    <node id="4way_240" x="1500.00" y="-900.00" type="traffic_light" tlLayout="opposites"/>
    <node id="4way_241" x="1600.00" y="-900.00" type="traffic_light" tlLayout="opposites"/>
    <node id="4way_242" x="1700.00" y="-900.00" type="traffic_light" tlLayout="opposites"/>
    <node id="4way_243" x="1800.00" y="-900.00" type="traffic_light" tlLayout="opposites"/>
    <node id="4way_244" x="1900.00" y="-900.00" type="traffic_light" tlLayout="opposites"/>
    <node id="4way_245" x="2000.00" y="-900.00" type="traffic_light" tlLayout="opposites"/>
    <node id="4way_246" x="2100.00" y="-900.00" type="traffic_light" tlLayout="opposites"/>
    <node id="4way_247" x="2200.00" y="-900.00" type="traffic_light" tlLayout="opposites"/>
    <node id="4way_248" x="2300.00" y="-900.00" type="traffic_light" tlLayout="opposites"/>
    <node id="4way_251" x="100.00" y="-1000.00" type="traffic_light" tlLayout="opposites"/>
    <node id="4way_252" x="200.00" y="-1000.00" type="traffic_light" tlLayout="opposites"/>
    <node id="4way_253" x="300.00" y="-1000.00" type="traffic_light" tlLayout="opposites"/>
    <node id="4way_254" x="400.00" y="-1000.00" type="traffic_light" tlLayout="opposites"/>
    <node id="4way_255" x="500.00" y="-1000.00" type="traffic_light" tlLayout="opposites"/>
    <node id="4way_256" x="600.00" y="-1000.00" type="traffic_light" tlLayout="opposites"/>
    <node id="4way_257" x="700.00" y="-1000.00" type="traffic_light" tlLayout="opposites"/>
    <node id="4way_258" x="800.00" y="-1000.00" type="traffic_light" tlLayout="opposites"/>
    <node id="4way_259" x="900.00" y="-1000.00" type="traffic_light" tlLayout="opposites"/>
    <node id="4way_26" x="100.00" y="-100.00" type="traffic_light" tlLayout="opposites"/>
    <node id="4way_260" x="1000.00" y="-1000.00" type="traffic_light" tlLayout="opposites"/>
    <node id="4way_261" x="1100.00" y="-1000.00" type="traffic_light" tlLayout="opposites"/>
    <node id="4way_262" x="1200.00" y="-1000.00" type="traffic_light" tlLayout="opposites"/>
    <node id="4way_263" x="1300.00" y="-1000.00" type="traffic_light" tlLayout="opposites"/>
    <node id="4way_264" x="1400.00" y="-1000.00" type="traffic_light" tlLayout="opposites"/>
    <node id="4way_265" x="1500.00" y="-1000.00" type="traffic_light" tlLayout="opposites"/>
    <node id="4way_266" x="1600.00" y="-1000.00" type="traffic_light" tlLayout="opposites"/>
    <node id="4way_267" x="1700.00" y="-1000.00" type="traffic_light" tlLayout="opposites"/>
    <node id="4way_268" x="1800.00" y="-1000.00" type="traffic_light" tlLayout="opposites"/>
    <node id="4way_269" x="1900.00" y="-1000.00" type="traffic_light" tlLayout="opposites"/>
    <node id="4way_27" x="200.00" y="-100.00" type="traffic_light" tlLayout="opposites"/>
    <node id="4way_270" x="2000.00" y="-1000.00" type="traffic_light" tlLayout="opposites"/>
    <node id="4way_271" x="2100.00" y="-1000.00" type="traffic_light" tlLayout="opposites"/>
    <node id="4way_272" x="2200.00" y="-1000.00" type="traffic_light" tlLayout="opposites"/>
    <node id="4way_273" x="2300.00" y="-1000.00" type="traffic_light" tlLayout="opposites"/>
    <node id="4way_276" x="100.00" y="-1100.00" type="traffic_light" tlLayout="opposites"/>
    <node id="4way_277" x="200.00" y="-1100.00" type="traffic_light" tlLayout="opposites"/>
    <node id="4way_278" x="300.00" y="-1100.00" type="traffic_light" tlLayout="opposites"/>
    <node id="4way_279" x="400.00" y="-1100.00" type="traffic_light" tlLayout="opposites"/>
    <node id="4way_28" x="300.00" y="-100.00" type="traffic_light" tlLayout="opposites"/>
    <node id="4way_280" x="500.00" y="-1100.00" type="traffic_light" tlLayout="opposites"/>
    <node id="4way_281" x="600.00" y="-1100.00" type="traffic_light" tlLayout="opposites"/>
    <node id="4way_282" x="700.00" y="-1100.00" type="traffic_light" tlLayout="opposites"/>
    <node id="4way_283" x="800.00" y="-1100.00" type="traffic_light" tlLayout="opposites"/>
    <node id="4way_284" x="900.00" y="-1100.00" type="traffic_light" tlLayout="opposites"/>
    <node id="4way_285" x="1000.00" y="-1100.00" type="traffic_light" tlLayout="opposites"/>
    <node id="4way_286" x="1100.00" y="-1100.00" type="traffic_light" tlLayout="opposites"/>
    <node id="4way_287" x="1200.00" y="-1100.00" type="traffic_light" tlLayout="opposites"/>
    <node id="4way_288" x="1300.00" y="-1100.00" type="traffic_light" tlLayout="opposites"/>
    <node id="4way_289" x="1400.00" y="-1100.00" type="traffic_light" tlLayout="opposites"/>
    <node id="4way_29" x="400.00" y="-100.00" type="traffic_light" tlLayout="opposites"/>
    <node id="4way_290" x="1500.00" y="-1100.00" type="traffic_light" tlLayout="opposites"/>
    <node id="4way_291" x="1600.00" y="-1100.00" type="traffic_light" tlLayout="opposites"/>
    <node id="4way_292" x="1700.00" y="-1100.00" type="traffic_light" tlLayout="opposites"/>
    <node id="4way_293" x="1800.00" y="-1100.00" type="traffic_light" tlLayout="opposites"/>
    <node id="4way_294" x="1900.00" y="-1100.00" type="traffic_light" tlLayout="opposites"/>
    <node id="4way_295" x="2000.00" y="-1100.00" type="traffic_light" tlLayout="opposites"/>
    <node id="4way_296" x="2100.00" y="-1100.00" type="traffic_light" tlLayout="opposites"/>
    <node id="4way_297" x="2200.00" y="-1100.00" type="traffic_light" tlLayout="opposites"/>
    <node id="4way_298" x="2300.00" y="-1100.00" type="traffic_light" tlLayout="opposites"/>
    <node id="4way_30" x="500.00" y="-100.00" type="traffic_light" tlLayout="opposites"/>
    <node id="4way_301" x="100.00" y="-1200.00" type="traffic_light" tlLayout="opposites"/>
    <node id="4way_302" x="200.00" y="-1200.00" type="traffic_light" tlLayout="opposites"/>
    <node id="4way_303" x="300.00" y="-1200.00" type="traffic_light" tlLayout="opposites"/>
    <node id="4way_304" x="400.00" y="-1200.00" type="traffic_light" tlLayout="opposites"/>
    <node id="4way_305" x="500.00" y="-1200.00" type="traffic_light" tlLayout="opposites"/>
    <node id="4way_306" x="600.00" y="-1200.00" type="traffic_light" tlLayout="opposites"/>
    <node id="4way_307" x="700.00" y="-1200.00" type="traffic_light" tlLayout="opposites"/>
    <node id="4way_308" x="800.00" y="-1200.00" type="traffic_light" tlLayout="opposites"/>
    <node id="4way_309" x="900.00" y="-1200.00" type="traffic_light" tlLayout="opposites"/>
    <node id="4way_31" x="600.00" y="-100.00" type="traffic_light" tlLayout="opposites"/>
    <node id="4way_310" x="1000.00" y="-1200.00" type="traffic_light" tlLayout="opposites"/>
    <node id="4way_311" x="1100.00" y="-1200.00" type="traffic_light" tlLayout="opposites"/>
    <node id="4way_312" x="1200.00" y="-1200.00" type="traffic_light" tlLayout="opposites"/>
    <node id="4way_313" x="1300.00" y="-1200.00" type="traffic_light" tlLayout="opposites"/>
    <node id="4way_314" x="1400.00" y="-1200.00" type="traffic_light" tlLayout="opposites"/>
    <node id="4way_315" x="1500.00" y="-1200.00" type="traffic_light" tlLayout="opposites"/>
    <node id="4way_316" x="1600.00" y="-1200.00" type="traffic_light" tlLayout="opposites"/>
    <node id="4way_317" x="1700.00" y="-1200.00" type="traffic_light" tlLayout="opposites"/>
    <node id="4way_318" x="1800.00" y="-1200.00" type="traffic_light" tlLayout="opposites"/>
    <node id="4way_319" x="1900.00" y="-1200.00" type="traffic_light" tlLayout="opposites"/>
    <node id="4way_32" x="700.00" y="-100.00" type="traffic_light" tlLayout="opposites"/>
    <node id="4way_320" x="2000.00" y="-1200.00" type="traffic_light" tlLayout="opposites"/>
    <node id="4way_321" x="2100.00" y="-1200.00" type="traffic_light" tlLayout="opposites"/>
    <node id="4way_322" x="2200.00" y="-1200.00" type="traffic_light" tlLayout="opposites"/>
    <node id="4way_323" x="2300.00" y="-1200.00" type="traffic_light" tlLayout="opposites"/>
    <node id="4way_326" x="100.00" y="-1300.00" type="traffic_light" tlLayout="opposites"/>
    <node id="4way_327" x="200.00" y="-1300.00" type="traffic_light" tlLayout="opposites"/>
    <node id="4way_328" x="300.00" y="-1300.00" type="traffic_light" tlLayout="opposites"/>
    <node id="4way_329" x="400.00" y="-1300.00" type="traffic_light" tlLayout="opposites"/>
    <node id="4way_33" x="800.00" y="-100.00" type="traffic_light" tlLayout="opposites"/>
    <node id="4way_330" x="500.00" y="-1300.00" type="traffic_light" tlLayout="opposites"/>
    <node id="4way_331" x="600.00" y="-1300.00" type="traffic_light" tlLayout="opposites"/>
    <node id="4way_332" x="700.00" y="-1300.00" type="traffic_light" tlLayout="opposites"/>
    <node id="4way_333" x="800.00" y="-1300.00" type="traffic_light" tlLayout="opposites"/>
    <node id="4way_334" x="900.00" y="-1300.00" type="traffic_light" tlLayout="opposites"/>
    <node id="4way_335" x="1000.00" y="-1300.00" type="traffic_light" tlLayout="opposites"/>
    <node id="4way_336" x="1100.00" y="-1300.00" type="traffic_light" tlLayout="opposites"/>
    <node id="4way_337" x="1200.00" y="-1300.00" type="traffic_light" tlLayout="opposites"/>
    <node id="4way_338" x="1300.00" y="-1300.00" type="traffic_light" tlLayout="opposites"/>
    <node id="4way_339" x="1400.00" y="-1300.00" type="traffic_light" tlLayout="opposites"/>
    <node id="4way_34" x="900.00" y="-100.00" type="traffic_light" tlLayout="opposites"/>
    <node id="4way_340" x="1500.00" y="-1300.00" type="traffic_light" tlLayout="opposites"/>
    <node id="4way_341" x="1600.00" y="-1300.00" type="traffic_light" tlLayout="opposites"/>
    <node id="4way_342" x="1700.00" y="-1300.00" type="traffic_light" tlLayout="opposites"/>
    <node id="4way_343" x="1800.00" y="-1300.00" type="traffic_light" tlLayout="opposites"/>