<routes xmlns:xsi="http://www.w3.org/2001/XMLSchema-instance" xsi:noNamespaceSchemaLocation="http://sumo.dlr.de/xsd/routes_file.xsd">
<trip id="0" depart="0.0" fromJunction="4way_54" toJunction="4way_81"/>
<trip id="1" depart="0.1777" fromJunction="4way_66" toJunction="4way_67"/>
<trip id="2" depart="0.3554" fromJunction="4way_202" toJunction="4way_49"/>
<trip id="3" depart="0.5331" fromJunction="4way_57" toJunction="4way_94"/>
<trip id="4" depart="0.7108" fromJunction="4way_108" toJunction="4way_88"/>
<trip id="5" depart="0.8885" fromJunction="4way_200" toJunction="4way_100"/>
<trip id="6" depart="1.0662" fromJunction="4way_162" toJunction="4way_141"/>
<trip id="7" depart="1.2439" fromJunction="3way_119" toJunction="3way_59"/>
<trip id="8" depart="1.4216" fromJunction="4way_56" toJunction="3way_5"/>
<trip id="9" depart="1.5993" fromJunction="4way_176" toJunction="4way_55"/>
<trip id="10" depart="1.777" fromJunction="4way_130" toJunction="4way_148"/>
<trip id="11" depart="1.9546999999999999" fromJunction="4way_70" toJunction="4way_169"/>
<trip id="12" depart="2.1324" fromJunction="4way_187" toJunction="3way_223"/>
<trip id="13" depart="2.3101" fromJunction="4way_28" toJunction="3way_218"/>
<trip id="14" depart="2.4878" fromJunction="4way_19" toJunction="4way_185"/>
<trip id="15" depart="2.6654999999999998" fromJunction="4way_55" toJunction="4way_106"/>
<trip id="16" depart="2.8432" fromJunction="4way_141" toJunction="4way_154"/>
<trip id="17" depart="3.0209" fromJunction="4way_112" toJunction="3way_5"/>
<trip id="18" depart="3.1986" fromJunction="4way_112" toJunction="4way_97"/>
<trip id="19" depart="3.3763" fromJunction="4way_128" toJunction="4way_28"/>
<trip id="20" depart="3.554" fromJunction="4way_94" toJunction="4way_33"/>
<trip id="21" depart="3.7317" fromJunction="3way_29" toJunction="4way_188"/>
<trip id="22" depart="3.9093999999999998" fromJunction="4way_98" toJunction="4way_83"/>
<trip id="23" depart="4.0870999999999995" fromJunction="3way_221" toJunction="3way_90"/>
<trip id="24" depart="4.2648" fromJunction="4way_48" toJunction="4way_77"/>
<trip id="25" depart="4.4425" fromJunction="4way_94" toJunction="4way_156"/>
<trip id="26" depart="4.6202" fromJunction="3way_164" toJunction="4way_178"/>
<trip id="27" depart="4.7979" fromJunction="3way_214" toJunction="3way_90"/>
<trip id="28" depart="4.9756" fromJunction="4way_61" toJunction="4way_38"/>
<trip id="29" depart="5.1533" fromJunction="4way_46" toJunction="4way_199"/>
<trip id="30" depart="5.3309999999999995" fromJunction="3way_194" toJunction="3way_214"/>
<trip id="31" depart="5.5087" fromJunction="3way_219" toJunction="4way_53"/>
<trip id="32" depart="5.6864" fromJunction="4way_63" toJunction="3way_135"/>
<trip id="33" depart="5.8641" fromJunction="3way_149" toJunction="4way_205"/>
<trip id="34" depart="6.0418" fromJunction="3way_149" toJunction="4way_71"/>
<trip id="35" depart="6.2195" fromJunction="4way_199" toJunction="4way_133"/>
<trip id="36" depart="6.3972" fromJunction="4way_67" toJunction="4way_133"/>
<trip id="37" depart="6.5748999999999995" fromJunction="3way_9" toJunction="4way_129"/>
<trip id="38" depart="6.7526" fromJunction="3way_223" toJunction="4way_166"/>
<trip id="39" depart="6.9303" fromJunction="3way_223" toJunction="4way_17"/>
<trip id="40" depart="7.108" fromJunction="4way_19" toJunction="4way_92"/>
<trip id="41" depart="7.2857" fromJunction="4way_173" toJunction="3way_44"/>
<trip id="42" depart="7.4634" fromJunction="4way_106" toJunction="4way_141"/>
<trip id="43" depart="7.6411" fromJunction="3way_134" toJunction="4way_185"/>
<trip id="44" depart="7.8187999999999995" fromJunction="4way_177" toJunction="4way_171"/>
<trip id="45" depart="7.9965" fromJunction="4way_83" toJunction="4way_92"/>
<trip id="46" depart="8.174199999999999" fromJunction="4way_54" toJunction="3way_220"/>
<trip id="47" depart="8.3519" fromJunction="3way_180" toJunction="4way_181"/>
<trip id="48" depart="8.5296" fromJunction="3way_5" toJunction="4way_201"/>
<trip id="49" depart="8.7073" fromJunction="3way_2" toJunction="4way_41"/>
<trip id="50" depart="8.885" fromJunction="4way_121" toJunction="4way_113"/>
<trip id="51" depart="9.0627" fromJunction="4way_88" toJunction="4way_114"/>
<trip id="52" depart="9.2404" fromJunction="4way_171" toJunction="4way_46"/>
<trip id="53" depart="9.418099999999999" fromJunction="4way_156" toJunction="4way_22"/>
<trip id="54" depart="9.5958" fromJunction="4way_58" toJunction="3way_45"/>
<trip id="55" depart="9.7735" fromJunction="4way_101" toJunction="4way_124"/>
<trip id="56" depart="9.9512" fromJunction="4way_17" toJunction="4way_188"/>
<trip id="57" depart="10.1289" fromJunction="4way_153" toJunction="4way_175"/>
<trip id="58" depart="10.3066" fromJunction="4way_186" toJunction="4way_206"/>
<trip id="59" depart="10.4843" fromJunction="4way_173" toJunction="4way_206"/>
<trip id="60" depart="10.661999999999999" fromJunction="4way_110" toJunction="4way_84"/>
<trip id="61" depart="10.8397" fromJunction="4way_202" toJunction="4way_73"/>
<trip id="62" depart="11.0174" fromJunction="4way_82" toJunction="4way_49"/>
<trip id="63" depart="11.1951" fromJunction="4way_32" toJunction="3way_5"/>
<trip id="64" depart="11.3728" fromJunction="4way_196" toJunction="4way_53"/>
<trip id="65" depart="11.5505" fromJunction="4way_64" toJunction="4way_112"/>
<trip id="66" depart="11.7282" fromJunction="4way_17" toJunction="3way_220"/>
<trip id="67" depart="11.905899999999999" fromJunction="4way_22" toJunction="4way_141"/>
<trip id="68" depart="12.0836" fromJunction="4way_38" toJunction="4way_156"/>
<trip id="69" depart="12.2613" fromJunction="4way_79" toJunction="4way_38"/>
<trip id="70" depart="12.439" fromJunction="4way_63" toJunction="4way_72"/>
<trip id="71" depart="12.6167" fromJunction="4way_57" toJunction="4way_94"/>
<trip id="72" depart="12.7944" fromJunction="4way_203" toJunction="4way_160"/>
<trip id="73" depart="12.9721" fromJunction="4way_147" toJunction="3way_164"/>
<trip id="74" depart="13.149799999999999" fromJunction="4way_208" toJunction="4way_39"/>
<trip id="75" depart="13.3275" fromJunction="4way_161" toJunction="3way_216"/>
<trip id="76" depart="13.5052" fromJunction="4way_112" toJunction="3way_214"/>
<trip id="77" depart="13.6829" fromJunction="4way_101" toJunction="3way_222"/>
<trip id="78" depart="13.8606" fromJunction="4way_141" toJunction="4way_160"/>
<trip id="79" depart="14.0383" fromJunction="3way_59" toJunction="4way_183"/>
<trip id="80" depart="14.216" fromJunction="4way_154" toJunction="4way_188"/>
<trip id="81" depart="14.393699999999999" fromJunction="4way_161" toJunction="4way_69"/>
<trip id="82" depart="14.5714" fromJunction="4way_131" toJunction="4way_133"/>
<trip id="83" depart="14.7491" fromJunction="4way_33" toJunction="3way_3"/>
<trip id="84" depart="14.9268" fromJunction="3way_212" toJunction="4way_99"/>
<trip id="85" depart="15.1045" fromJunction="3way_13" toJunction="4way_185"/>
<trip id="86" depart="15.2822" fromJunction="3way_5" toJunction="3way_120"/>
<trip id="87" depart="15.4599" fromJunction="3way_45" toJunction="4way_115"/>
<trip id="88" depart="15.637599999999999" fromJunction="4way_177" toJunction="4way_182"/>
<trip id="89" depart="15.8153" fromJunction="3way_8" toJunction="4way_203"/>
<trip id="90" depart="15.993" fromJunction="4way_127" toJunction="3way_213"/>
<trip id="91" depart="16.1707" fromJunction="4way_16" toJunction="4way_171"/>
<trip id="92" depart="16.348399999999998" fromJunction="4way_97" toJunction="4way_192"/>
<trip id="93" depart="16.5261" fromJunction="4way_22" toJunction="4way_36"/>
<trip id="94" depart="16.7038" fromJunction="4way_62" toJunction="4way_99"/>
<trip id="95" depart="16.8815" fromJunction="3way_90" toJunction="4way_168"/>
<trip id="96" depart="17.0592" fromJunction="4way_28" toJunction="3way_165"/>
<trip id="97" depart="17.2369" fromJunction="4way_80" toJunction="4way_129"/>
<trip id="98" depart="17.4146" fromJunction="4way_76" toJunction="3way_30"/>
<trip id="99" depart="17.592299999999998" fromJunction="4way_94" toJunction="3way_13"/>
<trip id="100" depart="17.77" fromJunction="4way_173" toJunction="4way_62"/>
<trip id="101" depart="17.9477" fromJunction="3way_195" toJunction="4way_93"/>
<trip id="102" depart="18.1254" fromJunction="3way_44" toJunction="3way_6"/>
<trip id="103" depart="18.3031" fromJunction="4way_154" toJunction="4way_128"/>
<trip id="104" depart="18.4808" fromJunction="4way_72" toJunction="4way_36"/>
<trip id="105" depart="18.6585" fromJunction="3way_75" toJunction="4way_178"/>
<trip id="106" depart="18.836199999999998" fromJunction="4way_106" toJunction="4way_68"/>
<trip id="107" depart="19.0139" fromJunction="4way_189" toJunction="3way_5"/>
<trip id="108" depart="19.1916" fromJunction="4way_108" toJunction="4way_92"/>
<trip id="109" depart="19.3693" fromJunction="4way_41" toJunction="4way_22"/>
<trip id="110" depart="19.547" fromJunction="4way_176" toJunction="4way_157"/>
<trip id="111" depart="19.7247" fromJunction="4way_130" toJunction="4way_136"/>
<trip id="112" depart="19.9024" fromJunction="4way_58" toJunction="3way_165"/>
<trip id="113" depart="20.080099999999998" fromJunction="3way_75" toJunction="4way_143"/>
<trip id="114" depart="20.2578" fromJunction="4way_99" toJunction="4way_43"/>
<trip id="115" depart="20.4355" fromJunction="3way_75" toJunction="4way_76"/>
<trip id="116" depart="20.6132" fromJunction="3way_6" toJunction="4way_170"/>
<trip id="117" depart="20.7909" fromJunction="4way_49" toJunction="3way_105"/>
<trip id="118" depart="20.9686" fromJunction="4way_184" toJunction="4way_78"/>
<trip id="119" depart="21.1463" fromJunction="4way_201" toJunction="4way_151"/>
<trip id="120" depart="21.323999999999998" fromJunction="3way_209" toJunction="4way_146"/>
<trip id="121" depart="21.5017" fromJunction="3way_220" toJunction="4way_170"/>
<trip id="122" depart="21.6794" fromJunction="4way_153" toJunction="4way_54"/>
<trip id="123" depart="21.8571" fromJunction="3way_180" toJunction="4way_126"/>
<trip id="124" depart="22.0348" fromJunction="4way_65" toJunction="3way_217"/>
<trip id="125" depart="22.2125" fromJunction="4way_207" toJunction="4way_18"/>
<trip id="126" depart="22.3902" fromJunction="4way_159" toJunction="4way_25"/>
<trip id="127" depart="22.567899999999998" fromJunction="3way_104" toJunction="4way_87"/>
<trip id="128" depart="22.7456" fromJunction="4way_201" toJunction="4way_96"/>
<trip id="129" depart="22.9233" fromJunction="4way_196" toJunction="4way_88"/>
<trip id="130" depart="23.101" fromJunction="3way_164" toJunction="4way_31"/>
<trip id="131" depart="23.2787" fromJunction="4way_177" toJunction="3way_4"/>
<trip id="132" depart="23.4564" fromJunction="4way_85" toJunction="4way_98"/>
<trip id="133" depart="23.6341" fromJunction="4way_201" toJunction="4way_166"/>
<trip id="134" depart="23.811799999999998" fromJunction="4way_65" toJunction="3way_44"/>
<trip id="135" depart="23.9895" fromJunction="4way_191" toJunction="4way_148"/>
<trip id="136" depart="24.1672" fromJunction="4way_88" toJunction="4way_152"/>
<trip id="137" depart="24.3449" fromJunction="4way_43" toJunction="3way_15"/>
<trip id="138" depart="24.5226" fromJunction="4way_130" toJunction="4way_28"/>
<trip id="139" depart="24.7003" fromJunction="4way_191" toJunction="4way_157"/>
<trip id="140" depart="24.878" fromJunction="4way_101" toJunction="4way_196"/>
<trip id="141" depart="25.055699999999998" fromJunction="3way_3" toJunction="4way_112"/>
<trip id="142" depart="25.2334" fromJunction="3way_217" toJunction="4way_182"/>
<trip id="143" depart="25.4111" fromJunction="4way_35" toJunction="4way_148"/>
<trip id="144" depart="25.5888" fromJunction="4way_187" toJunction="4way_95"/>
<trip id="145" depart="25.7665" fromJunction="3way_219" toJunction="4way_63"/>
<trip id="146" depart="25.9442" fromJunction="3way_165" toJunction="4way_205"/>
<trip id="147" depart="26.1219" fromJunction="3way_45" toJunction="4way_155"/>
<trip id="148" depart="26.299599999999998" fromJunction="4way_146" toJunction="3way_149"/>
<trip id="149" depart="26.4773" fromJunction="4way_88" toJunction="4way_133"/>
<trip id="150" depart="26.655" fromJunction="4way_55" toJunction="4way_102"/>
<trip id="151" depart="26.8327" fromJunction="3way_89" toJunction="4way_137"/>
<trip id="152" depart="27.0104" fromJunction="3way_15" toJunction="4way_198"/>
<trip id="153" depart="27.1881" fromJunction="3way_12" toJunction="3way_220"/>
<trip id="154" depart="27.3658" fromJunction="3way_3" toJunction="4way_84"/>
<trip id="155" depart="27.543499999999998" fromJunction="3way_217" toJunction="4way_40"/>
<trip id="156" depart="27.7212" fromJunction="3way_119" toJunction="3way_89"/>
<trip id="157" depart="27.8989" fromJunction="4way_46" toJunction="4way_98"/>
<trip id="158" depart="28.0766" fromJunction="4way_111" toJunction="4way_34"/>
<trip id="159" depart="28.2543" fromJunction="4way_84" toJunction="4way_146"/>
<trip id="160" depart="28.432" fromJunction="3way_220" toJunction="4way_121"/>
<trip id="161" depart="28.6097" fromJunction="4way_32" toJunction="3way_13"/>
<trip id="162" depart="28.787399999999998" fromJunction="4way_154" toJunction="4way_91"/>
<trip id="163" depart="28.9651" fromJunction="4way_173" toJunction="4way_143"/>
<trip id="164" depart="29.1428" fromJunction="4way_93" toJunction="4way_166"/>
<trip id="165" depart="29.3205" fromJunction="4way_100" toJunction="3way_180"/>
<trip id="166" depart="29.4982" fromJunction="4way_188" toJunction="3way_13"/>
<trip id="167" depart="29.6759" fromJunction="4way_55" toJunction="4way_70"/>
<trip id="168" depart="29.8536" fromJunction="4way_78" toJunction="4way_91"/>
<trip id="169" depart="30.031299999999998" fromJunction="4way_136" toJunction="4way_201"/>
<trip id="170" depart="30.209" fromJunction="3way_135" toJunction="4way_63"/>
<trip id="171" depart="30.3867" fromJunction="3way_10" toJunction="4way_169"/>
<trip id="172" depart="30.5644" fromJunction="3way_89" toJunction="4way_130"/>
<trip id="173" depart="30.7421" fromJunction="4way_47" toJunction="4way_170"/>
<trip id="174" depart="30.9198" fromJunction="4way_88" toJunction="4way_171"/>
<trip id="175" depart="31.0975" fromJunction="3way_8" toJunction="4way_202"/>
<trip id="176" depart="31.275199999999998" fromJunction="4way_140" toJunction="4way_79"/>
<trip id="177" depart="31.4529" fromJunction="4way_128" toJunction="4way_36"/>
<trip id="178" depart="31.6306" fromJunction="3way_221" toJunction="4way_151"/>
<trip id="179" depart="31.8083" fromJunction="4way_73" toJunction="4way_138"/>
<trip id="180" depart="31.986" fromJunction="4way_87" toJunction="3way_165"/>
<trip id="181" depart="32.1637" fromJunction="4way_154" toJunction="4way_66"/>
<trip id="182" depart="32.3414" fromJunction="4way_169" toJunction="4way_206"/>
<trip id="183" depart="32.5191" fromJunction="4way_168" toJunction="4way_84"/>
<trip id="184" depart="32.696799999999996" fromJunction="4way_158" toJunction="4way_87"/>
<trip id="185" depart="32.8745" fromJunction="4way_122" toJunction="4way_188"/>
<trip id="186" depart="33.0522" fromJunction="4way_172" toJunction="4way_189"/>
<trip id="187" depart="33.2299" fromJunction="3way_214" toJunction="4way_31"/>
<trip id="188" depart="33.4076" fromJunction="4way_73" toJunction="4way_130"/>
<trip id="189" depart="33.5853" fromJunction="4way_22" toJunction="4way_169"/>
<trip id="190" depart="33.763" fromJunction="4way_169" toJunction="4way_131"/>
<trip id="191" depart="33.9407" fromJunction="4way_171" toJunction="4way_58"/>
<trip id="192" depart="34.1184" fromJunction="4way_102" toJunction="4way_205"/>
<trip id="193" depart="34.2961" fromJunction="3way_214" toJunction="4way_190"/>
<trip id="194" depart="34.4738" fromJunction="4way_168" toJunction="4way_142"/>
<trip id="195" depart="34.6515" fromJunction="4way_49" toJunction="3way_29"/>
<trip id="196" depart="34.8292" fromJunction="4way_101" toJunction="4way_91"/>
<trip id="197" depart="35.0069" fromJunction="4way_73" toJunction="3way_8"/>
<trip id="198" depart="35.184599999999996" fromJunction="3way_180" toJunction="3way_4"/>
<trip id="199" depart="35.3623" fromJunction="4way_177" toJunction="4way_168"/>
<trip id="200" depart="35.54" fromJunction="4way_28" toJunction="3way_164"/>
<trip id="201" depart="35.7177" fromJunction="4way_154" toJunction="4way_176"/>
<trip id="202" depart="35.8954" fromJunction="3way_15" toJunction="4way_122"/>
<trip id="203" depart="36.0731" fromJunction="3way_8" toJunction="4way_97"/>
<trip id="204" depart="36.2508" fromJunction="4way_64" toJunction="3way_4"/>
<trip id="205" depart="36.4285" fromJunction="4way_61" toJunction="3way_59"/>
<trip id="206" depart="36.6062" fromJunction="4way_61" toJunction="3way_60"/>
<trip id="207" depart="36.7839" fromJunction="3way_3" toJunction="3way_221"/>
<trip id="208" depart="36.9616" fromJunction="4way_112" toJunction="3way_209"/>
<trip id="209" depart="37.1393" fromJunction="4way_178" toJunction="4way_133"/>
<trip id="210" depart="37.317" fromJunction="3way_213" toJunction="4way_198"/>
<trip id="211" depart="37.4947" fromJunction="4way_80" toJunction="4way_187"/>
<trip id="212" depart="37.672399999999996" fromJunction="3way_44" toJunction="4way_178"/>
<trip id="213" depart="37.8501" fromJunction="4way_181" toJunction="4way_85"/>
<trip id="214" depart="38.0278" fromJunction="4way_68" toJunction="4way_31"/>
<trip id="215" depart="38.2055" fromJunction="4way_83" toJunction="4way_46"/>
<trip id="216" depart="38.3832" fromJunction="4way_49" toJunction="4way_170"/>
<trip id="217" depart="38.5609" fromJunction="4way_181" toJunction="4way_96"/>
<trip id="218" depart="38.7386" fromJunction="4way_19" toJunction="4way_24"/>
<trip id="219" depart="38.9163" fromJunction="4way_41" toJunction="4way_33"/>
<trip id="220" depart="39.094" fromJunction="3way_11" toJunction="4way_162"/>
<trip id="221" depart="39.2717" fromJunction="4way_197" toJunction="3way_15"/>
<trip id="222" depart="39.4494" fromJunction="4way_163" toJunction="4way_190"/>
<trip id="223" depart="39.6271" fromJunction="4way_87" toJunction="4way_118"/>
<trip id="224" depart="39.8048" fromJunction="4way_193" toJunction="4way_17"/>
<trip id="225" depart="39.9825" fromJunction="3way_179" toJunction="4way_61"/>
<trip id="226" depart="40.160199999999996" fromJunction="3way_15" toJunction="4way_58"/>
<trip id="227" depart="40.3379" fromJunction="3way_13" toJunction="4way_158"/>
<trip id="228" depart="40.5156" fromJunction="4way_206" toJunction="4way_99"/>
<trip id="229" depart="40.6933" fromJunction="4way_93" toJunction="4way_136"/>
<trip id="230" depart="40.871" fromJunction="4way_159" toJunction="4way_78"/>
<trip id="231" depart="41.0487" fromJunction="3way_212" toJunction="4way_16"/>
<trip id="232" depart="41.2264" fromJunction="4way_47" toJunction="4way_139"/>
<trip id="233" depart="41.4041" fromJunction="4way_16" toJunction="4way_71"/>
<trip id="234" depart="41.5818" fromJunction="4way_28" toJunction="4way_125"/>
<trip id="235" depart="41.7595" fromJunction="4way_161" toJunction="4way_172"/>
<trip id="236" depart="41.9372" fromJunction="4way_159" toJunction="4way_207"/>
<trip id="237" depart="42.1149" fromJunction="4way_103" toJunction="4way_188"/>
<trip id="238" depart="42.2926" fromJunction="4way_139" toJunction="4way_193"/>
<trip id="239" depart="42.4703" fromJunction="4way_196" toJunction="3way_59"/>
<trip id="240" depart="42.647999999999996" fromJunction="4way_34" toJunction="3way_216"/>
<trip id="241" depart="42.8257" fromJunction="4way_67" toJunction="3way_220"/>
<trip id="242" depart="43.0034" fromJunction="4way_57" toJunction="4way_108"/>
<trip id="243" depart="43.1811" fromJunction="4way_66" toJunction="4way_103"/>
<trip id="244" depart="43.3588" fromJunction="4way_22" toJunction="4way_136"/>
<trip id="245" depart="43.5365" fromJunction="4way_183" toJunction="4way_72"/>
<trip id="246" depart="43.7142" fromJunction="4way_136" toJunction="4way_96"/>
<trip id="247" depart="43.8919" fromJunction="4way_168" toJunction="4way_154"/>
<trip id="248" depart="44.0696" fromJunction="4way_125" toJunction="4way_46"/>
<trip id="249" depart="44.2473" fromJunction="4way_78" toJunction="4way_62"/>
<trip id="250" depart="44.425" fromJunction="4way_159" toJunction="4way_200"/>
<trip id="251" depart="44.6027" fromJunction="4way_162" toJunction="4way_137"/>
<trip id="252" depart="44.7804" fromJunction="3way_11" toJunction="4way_146"/>
<trip id="253" depart="44.9581" fromJunction="4way_124" toJunction="4way_76"/>
<trip id="254" depart="45.135799999999996" fromJunction="4way_197" toJunction="3way_179"/>
<trip id="255" depart="45.3135" fromJunction="4way_128" toJunction="4way_129"/>
<trip id="256" depart="45.4912" fromJunction="4way_39" toJunction="4way_127"/>
<trip id="257" depart="45.6689" fromJunction="4way_167" toJunction="3way_105"/>
<trip id="258" depart="45.8466" fromJunction="4way_206" toJunction="4way_113"/>
<trip id="259" depart="46.0243" fromJunction="4way_166" toJunction="4way_66"/>
<trip id="260" depart="46.202" fromJunction="4way_24" toJunction="3way_7"/>
<trip id="261" depart="46.3797" fromJunction="4way_78" toJunction="3way_2"/>
<trip id="262" depart="46.5574" fromJunction="4way_147" toJunction="4way_21"/>
<trip id="263" depart="46.735099999999996" fromJunction="4way_183" toJunction="3way_119"/>
<trip id="264" depart="46.9128" fromJunction="4way_167" toJunction="3way_6"/>
<trip id="265" depart="47.0905" fromJunction="4way_151" toJunction="4way_127"/>
<trip id="266" depart="47.2682" fromJunction="3way_209" toJunction="3way_90"/>
<trip id="267" depart="47.4459" fromJunction="4way_173" toJunction="4way_171"/>
<trip id="268" depart="47.623599999999996" fromJunction="4way_43" toJunction="4way_98"/>
<trip id="269" depart="47.8013" fromJunction="4way_23" toJunction="3way_1"/>
<trip id="270" depart="47.979" fromJunction="4way_22" toJunction="4way_52"/>
<trip id="271" depart="48.1567" fromJunction="3way_4" toJunction="4way_88"/>
<trip id="272" depart="48.3344" fromJunction="4way_175" toJunction="4way_173"/>
<trip id="273" depart="48.5121" fromJunction="4way_137" toJunction="4way_140"/>
<trip id="274" depart="48.6898" fromJunction="3way_149" toJunction="4way_100"/>
<trip id="275" depart="48.8675" fromJunction="4way_170" toJunction="4way_109"/>
<trip id="276" depart="49.0452" fromJunction="3way_134" toJunction="4way_173"/>
<trip id="277" depart="49.222899999999996" fromJunction="4way_198" toJunction="3way_30"/>
<trip id="278" depart="49.4006" fromJunction="4way_42" toJunction="4way_127"/>
<trip id="279" depart="49.5783" fromJunction="3way_220" toJunction="4way_112"/>
<trip id="280" depart="49.756" fromJunction="4way_176" toJunction="4way_148"/>
<trip id="281" depart="49.9337" fromJunction="4way_147" toJunction="4way_125"/>
<trip id="282" depart="50.111399999999996" fromJunction="4way_162" toJunction="4way_51"/>
<trip id="283" depart="50.2891" fromJunction="4way_103" toJunction="4way_41"/>
<trip id="284" depart="50.4668" fromJunction="3way_8" toJunction="4way_147"/>
<trip id="285" depart="50.6445" fromJunction="4way_123" toJunction="3way_211"/>
<trip id="286" depart="50.8222" fromJunction="4way_32" toJunction="4way_58"/>
<trip id="287" depart="50.9999" fromJunction="4way_27" toJunction="3way_214"/>
<trip id="288" depart="51.1776" fromJunction="4way_102" toJunction="4way_124"/>
<trip id="289" depart="51.3553" fromJunction="4way_68" toJunction="3way_214"/>
<trip id="290" depart="51.533" fromJunction="3way_74" toJunction="4way_109"/>
<trip id="291" depart="51.710699999999996" fromJunction="4way_46" toJunction="4way_173"/>
<trip id="292" depart="51.8884" fromJunction="3way_29" toJunction="3way_9"/>
<trip id="293" depart="52.0661" fromJunction="4way_102" toJunction="3way_29"/>
<trip id="294" depart="52.2438" fromJunction="4way_72" toJunction="4way_129"/>
<trip id="295" depart="52.4215" fromJunction="4way_200" toJunction="4way_98"/>
<trip id="296" depart="52.599199999999996" fromJunction="4way_208" toJunction="4way_47"/>
<trip id="297" depart="52.7769" fromJunction="4way_20" toJunction="4way_48"/>
<trip id="298" depart="52.9546" fromJunction="4way_148" toJunction="4way_93"/>
<trip id="299" depart="53.1323" fromJunction="4way_122" toJunction="3way_211"/>
<trip id="300" depart="53.31" fromJunction="3way_29" toJunction="4way_128"/>
<trip id="301" depart="53.4877" fromJunction="4way_35" toJunction="4way_82"/>
<trip id="302" depart="53.6654" fromJunction="4way_16" toJunction="4way_166"/>
<trip id="303" depart="53.8431" fromJunction="4way_63" toJunction="4way_155"/>
<trip id="304" depart="54.0208" fromJunction="4way_152" toJunction="4way_154"/>
<trip id="305" depart="54.198499999999996" fromJunction="3way_220" toJunction="4way_118"/>
<trip id="306" depart="54.3762" fromJunction="4way_167" toJunction="3way_149"/>
<trip id="307" depart="54.5539" fromJunction="4way_53" toJunction="4way_22"/>
<trip id="308" depart="54.7316" fromJunction="4way_208" toJunction="4way_153"/>
<trip id="309" depart="54.9093" fromJunction="4way_69" toJunction="4way_197"/>
<trip id="310" depart="55.086999999999996" fromJunction="4way_175" toJunction="4way_172"/>
<trip id="311" depart="55.2647" fromJunction="4way_42" toJunction="4way_133"/>
<trip id="312" depart="55.4424" fromJunction="4way_188" toJunction="4way_204"/>
<trip id="313" depart="55.6201" fromJunction="3way_217" toJunction="4way_152"/>
<trip id="314" depart="55.7978" fromJunction="4way_31" toJunction="3way_29"/>
<trip id="315" depart="55.9755" fromJunction="4way_185" toJunction="4way_79"/>
<trip id="316" depart="56.1532" fromJunction="4way_73" toJunction="4way_40"/>
<trip id="317" depart="56.3309" fromJunction="3way_179" toJunction="3way_209"/>
<trip id="318" depart="56.5086" fromJunction="4way_144" toJunction="4way_22"/>
<trip id="319" depart="56.686299999999996" fromJunction="4way_192" toJunction="4way_101"/>
<trip id="320" depart="56.864" fromJunction="4way_168" toJunction="4way_163"/>
<trip id="321" depart="57.0417" fromJunction="3way_217" toJunction="4way_108"/>
<trip id="322" depart="57.2194" fromJunction="4way_53" toJunction="4way_143"/>
<trip id="323" depart="57.3971" fromJunction="3way_149" toJunction="4way_146"/>
<trip id="324" depart="57.574799999999996" fromJunction="4way_186" toJunction="4way_110"/>
<trip id="325" depart="57.7525" fromJunction="3way_212" toJunction="4way_31"/>
<trip id="326" depart="57.9302" fromJunction="3way_13" toJunction="4way_131"/>
<trip id="327" depart="58.1079" fromJunction="3way_209" toJunction="4way_20"/>
<trip id="328" depart="58.2856" fromJunction="4way_148" toJunction="4way_169"/>
<trip id="329" depart="58.4633" fromJunction="4way_131" toJunction="4way_49"/>
<trip id="330" depart="58.641" fromJunction="4way_121" toJunction="3way_209"/>
<trip id="331" depart="58.8187" fromJunction="4way_168" toJunction="4way_183"/>
<trip id="332" depart="58.9964" fromJunction="4way_182" toJunction="4way_98"/>
<trip id="333" depart="59.174099999999996" fromJunction="4way_187" toJunction="4way_39"/>
<trip id="334" depart="59.3518" fromJunction="4way_79" toJunction="4way_168"/>
<trip id="335" depart="59.5295" fromJunction="3way_59" toJunction="4way_97"/>
<trip id="336" depart="59.7072" fromJunction="4way_38" toJunction="4way_205"/>
<trip id="337" depart="59.8849" fromJunction="4way_36" toJunction="4way_84"/>
<trip id="338" depart="60.062599999999996" fromJunction="4way_183" toJunction="3way_194"/>
<trip id="339" depart="60.2403" fromJunction="4way_92" toJunction="4way_183"/>
<trip id="340" depart="60.418" fromJunction="4way_114" toJunction="3way_7"/>
<trip id="341" depart="60.5957" fromJunction="4way_67" toJunction="3way_194"/>
<trip id="342" depart="60.7734" fromJunction="4way_172" toJunction="4way_203"/>
<trip id="343" depart="60.9511" fromJunction="3way_164" toJunction="4way_73"/>
<trip id="344" depart="61.1288" fromJunction="3way_7" toJunction="4way_161"/>
<trip id="345" depart="61.3065" fromJunction="4way_183" toJunction="4way_36"/>
<trip id="346" depart="61.4842" fromJunction="4way_48" toJunction="4way_185"/>
<trip id="347" depart="61.661899999999996" fromJunction="3way_5" toJunction="3way_150"/>
<trip id="348" depart="61.8396" fromJunction="4way_86" toJunction="4way_170"/>
<trip id="349" depart="62.0173" fromJunction="3way_45" toJunction="4way_78"/>
<trip id="350" depart="62.195" fromJunction="3way_104" toJunction="3way_89"/>
<trip id="351" depart="62.3727" fromJunction="3way_164" toJunction="3way_60"/>
<trip id="352" depart="62.550399999999996" fromJunction="3way_44" toJunction="4way_106"/>
<trip id="353" depart="62.7281" fromJunction="4way_131" toJunction="3way_44"/>
<trip id="354" depart="62.9058" fromJunction="4way_111" toJunction="3way_214"/>
<trip id="355" depart="63.0835" fromJunction="4way_154" toJunction="4way_40"/>
<trip id="356" depart="63.2612" fromJunction="3way_120" toJunction="3way_216"/>
<trip id="357" depart="63.4389" fromJunction="4way_200" toJunction="4way_79"/>
<trip id="358" depart="63.6166" fromJunction="4way_70" toJunction="4way_197"/>
<trip id="359" depart="63.7943" fromJunction="4way_162" toJunction="4way_159"/>
<trip id="360" depart="63.972" fromJunction="4way_57" toJunction="3way_7"/>
<trip id="361" depart="64.1497" fromJunction="4way_206" toJunction="4way_138"/>
<trip id="362" depart="64.3274" fromJunction="4way_178" toJunction="4way_158"/>
<trip id="363" depart="64.5051" fromJunction="4way_48" toJunction="4way_189"/>
<trip id="364" depart="64.6828" fromJunction="4way_93" toJunction="4way_110"/>
<trip id="365" depart="64.8605" fromJunction="4way_91" toJunction="4way_48"/>
<trip id="366" depart="65.0382" fromJunction="4way_128" toJunction="4way_95"/>
<trip id="367" depart="65.2159" fromJunction="4way_185" toJunction="4way_151"/>
<trip id="368" depart="65.39359999999999" fromJunction="3way_214" toJunction="3way_209"/>
<trip id="369" depart="65.5713" fromJunction="4way_118" toJunction="3way_11"/>
<trip id="370" depart="65.749" fromJunction="3way_195" toJunction="3way_1"/>
<trip id="371" depart="65.9267" fromJunction="3way_89" toJunction="4way_97"/>
<trip id="372" depart="66.1044" fromJunction="4way_69" toJunction="4way_206"/>