<routes xmlns:xsi="http://www.w3.org/2001/XMLSchema-instance" xsi:noNamespaceSchemaLocation="http://sumo.dlr.de/xsd/routes_file.xsd">
<trip id="0" depart="0.0" fromJunction="4way_24" toJunction="4way_36"/>
<trip id="1" depart="0.3809" fromJunction="4way_36" toJunction="4way_23"/>
<trip id="2" depart="0.7618" fromJunction="4way_37" toJunction="3way_7"/>
<trip id="3" depart="1.1427" fromJunction="4way_12" toJunction="3way_7"/>
<trip id="4" depart="1.5236" fromJunction="3way_21" toJunction="4way_33"/>
<trip id="5" depart="1.9045" fromJunction="4way_29" toJunction="4way_11"/>
<trip id="6" depart="2.2854" fromJunction="4way_19" toJunction="4way_9"/>
<trip id="7" depart="2.6663" fromJunction="4way_25" toJunction="3way_1"/>
<trip id="8" depart="3.0472" fromJunction="4way_39" toJunction="4way_11"/>
<trip id="9" depart="3.4281" fromJunction="4way_11" toJunction="4way_40"/>
<trip id="10" depart="3.809" fromJunction="4way_11" toJunction="4way_8"/>
<trip id="11" depart="4.1899" fromJunction="4way_30" toJunction="3way_13"/>
<trip id="12" depart="4.5708" fromJunction="4way_26" toJunction="3way_20"/>
<trip id="13" depart="4.951700000000001" fromJunction="3way_14" toJunction="4way_29"/>
<trip id="14" depart="5.3326" fromJunction="4way_38" toJunction="3way_46"/>
<trip id="15" depart="5.7135" fromJunction="4way_9" toJunction="4way_8"/>
<trip id="16" depart="6.0944" fromJunction="4way_23" toJunction="3way_1"/>
<trip id="17" depart="6.475300000000001" fromJunction="4way_10" toJunction="4way_26"/>
<trip id="18" depart="6.8562" fromJunction="3way_7" toJunction="3way_28"/>
<trip id="19" depart="7.2371" fromJunction="3way_3" toJunction="4way_17"/>
<trip id="20" depart="7.618" fromJunction="3way_13" toJunction="3way_41"/>
<trip id="21" depart="7.998900000000001" fromJunction="3way_28" toJunction="3way_43"/>
<trip id="22" depart="8.3798" fromJunction="3way_7" toJunction="4way_9"/>
<trip id="23" depart="8.7607" fromJunction="3way_5" toJunction="4way_40"/>
<trip id="24" depart="9.1416" fromJunction="3way_27" toJunction="3way_41"/>
<trip id="25" depart="9.5225" fromJunction="3way_46" toJunction="4way_37"/>
<trip id="26" depart="9.903400000000001" fromJunction="3way_47" toJunction="4way_8"/>
<trip id="27" depart="10.2843" fromJunction="3way_5" toJunction="3way_27"/>
<trip id="28" depart="10.6652" fromJunction="3way_20" toJunction="4way_37"/>
<trip id="29" depart="11.046100000000001" fromJunction="3way_28" toJunction="3way_34"/>
<trip id="30" depart="11.427" fromJunction="3way_5" toJunction="4way_18"/>
<trip id="31" depart="11.8079" fromJunction="3way_5" toJunction="4way_25"/>
<trip id="32" depart="12.1888" fromJunction="4way_15" toJunction="4way_33"/>
<trip id="33" depart="12.569700000000001" fromJunction="4way_23" toJunction="4way_33"/>
<trip id="34" depart="12.950600000000001" fromJunction="3way_2" toJunction="4way_31"/>
<trip id="35" depart="13.3315" fromJunction="3way_13" toJunction="3way_45"/>
<trip id="36" depart="13.7124" fromJunction="3way_13" toJunction="3way_44"/>
<trip id="37" depart="14.093300000000001" fromJunction="3way_14" toJunction="3way_43"/>
<trip id="38" depart="14.4742" fromJunction="4way_17" toJunction="3way_3"/>
<trip id="39" depart="14.8551" fromJunction="3way_46" toJunction="4way_9"/>
<trip id="40" depart="15.236" fromJunction="3way_5" toJunction="4way_29"/>
<trip id="41" depart="15.616900000000001" fromJunction="4way_19" toJunction="4way_9"/>
<trip id="42" depart="15.997800000000002" fromJunction="4way_10" toJunction="3way_43"/>
<trip id="43" depart="16.378700000000002" fromJunction="4way_24" toJunction="3way_13"/>
<trip id="44" depart="16.7596" fromJunction="3way_34" toJunction="3way_44"/>
<trip id="45" depart="17.1405" fromJunction="3way_1" toJunction="4way_16"/>
<trip id="46" depart="17.5214" fromJunction="3way_1" toJunction="4way_25"/>
<trip id="47" depart="17.9023" fromJunction="3way_45" toJunction="4way_10"/>
<trip id="48" depart="18.2832" fromJunction="4way_33" toJunction="4way_31"/>
<trip id="49" depart="18.6641" fromJunction="4way_9" toJunction="3way_46"/>
<trip id="50" depart="19.045" fromJunction="4way_9" toJunction="4way_16"/>
<trip id="51" depart="19.425900000000002" fromJunction="4way_26" toJunction="3way_47"/>
<trip id="52" depart="19.806800000000003" fromJunction="4way_32" toJunction="4way_8"/>
<trip id="53" depart="20.1877" fromJunction="3way_44" toJunction="4way_17"/>
<trip id="54" depart="20.5686" fromJunction="3way_21" toJunction="4way_18"/>
<trip id="55" depart="20.9495" fromJunction="4way_16" toJunction="4way_39"/>
<trip id="56" depart="21.3304" fromJunction="4way_17" toJunction="4way_39"/>
<trip id="57" depart="21.7113" fromJunction="4way_22" toJunction="4way_24"/>
<trip id="58" depart="22.092200000000002" fromJunction="4way_30" toJunction="4way_33"/>
<trip id="59" depart="22.473100000000002" fromJunction="4way_23" toJunction="3way_7"/>
<trip id="60" depart="22.854" fromJunction="3way_44" toJunction="3way_1"/>
<trip id="61" depart="23.2349" fromJunction="3way_44" toJunction="4way_37"/>
<trip id="62" depart="23.6158" fromJunction="3way_7" toJunction="4way_23"/>
<trip id="63" depart="23.9967" fromJunction="3way_44" toJunction="3way_20"/>
<trip id="64" depart="24.3776" fromJunction="4way_16" toJunction="4way_9"/>
<trip id="65" depart="24.7585" fromJunction="4way_37" toJunction="4way_9"/>
<trip id="66" depart="25.139400000000002" fromJunction="3way_7" toJunction="4way_37"/>
<trip id="67" depart="25.520300000000002" fromJunction="3way_28" toJunction="4way_12"/>
<trip id="68" depart="25.901200000000003" fromJunction="4way_12" toJunction="3way_7"/>
<trip id="69" depart="26.2821" fromJunction="4way_17" toJunction="4way_18"/>
<trip id="70" depart="26.663" fromJunction="4way_19" toJunction="3way_5"/>
<trip id="71" depart="27.0439" fromJunction="4way_40" toJunction="4way_24"/>
<trip id="72" depart="27.4248" fromJunction="4way_39" toJunction="3way_20"/>
<trip id="73" depart="27.8057" fromJunction="4way_23" toJunction="3way_27"/>
<trip id="74" depart="28.186600000000002" fromJunction="4way_32" toJunction="3way_13"/>
<trip id="75" depart="28.567500000000003" fromJunction="4way_9" toJunction="4way_18"/>
<trip id="76" depart="28.9484" fromJunction="3way_4" toJunction="3way_14"/>
<trip id="77" depart="29.3293" fromJunction="4way_8" toJunction="4way_17"/>
<trip id="78" depart="29.7102" fromJunction="4way_32" toJunction="4way_24"/>
<trip id="79" depart="30.0911" fromJunction="4way_32" toJunction="4way_33"/>
<trip id="80" depart="30.472" fromJunction="3way_28" toJunction="3way_1"/>
<trip id="81" depart="30.8529" fromJunction="3way_27" toJunction="4way_24"/>
<trip id="82" depart="31.233800000000002" fromJunction="3way_3" toJunction="4way_29"/>
<trip id="83" depart="31.614700000000003" fromJunction="3way_1" toJunction="3way_34"/>
<trip id="84" depart="31.995600000000003" fromJunction="3way_47" toJunction="4way_11"/>
<trip id="85" depart="32.3765" fromJunction="4way_19" toJunction="3way_35"/>
<trip id="86" depart="32.757400000000004" fromJunction="3way_2" toJunction="4way_17"/>
<trip id="87" depart="33.1383" fromJunction="4way_23" toJunction="3way_27"/>
<trip id="88" depart="33.5192" fromJunction="3way_47" toJunction="4way_9"/>
<trip id="89" depart="33.9001" fromJunction="4way_23" toJunction="4way_26"/>
<trip id="90" depart="34.281" fromJunction="4way_16" toJunction="4way_36"/>
<trip id="91" depart="34.6619" fromJunction="3way_43" toJunction="4way_24"/>
<trip id="92" depart="35.0428" fromJunction="3way_41" toJunction="3way_21"/>
<trip id="93" depart="35.423700000000004" fromJunction="4way_26" toJunction="3way_34"/>
<trip id="94" depart="35.8046" fromJunction="4way_22" toJunction="4way_31"/>
<trip id="95" depart="36.185500000000005" fromJunction="3way_46" toJunction="3way_47"/>
<trip id="96" depart="36.5664" fromJunction="3way_7" toJunction="3way_3"/>
<trip id="97" depart="36.9473" fromJunction="4way_17" toJunction="3way_43"/>
<trip id="98" depart="37.3282" fromJunction="3way_34" toJunction="3way_28"/>
<trip id="99" depart="37.7091" fromJunction="3way_4" toJunction="3way_2"/>
<trip id="100" depart="38.09" fromJunction="4way_8" toJunction="4way_10"/>
<trip id="101" depart="38.4709" fromJunction="4way_12" toJunction="4way_36"/>
<trip id="102" depart="38.851800000000004" fromJunction="3way_41" toJunction="4way_40"/>
<trip id="103" depart="39.2327" fromJunction="3way_46" toJunction="4way_37"/>
<trip id="104" depart="39.613600000000005" fromJunction="4way_38" toJunction="3way_1"/>
<trip id="105" depart="39.9945" fromJunction="3way_21" toJunction="3way_43"/>
<trip id="106" depart="40.3754" fromJunction="4way_25" toJunction="4way_16"/>
<trip id="107" depart="40.7563" fromJunction="4way_39" toJunction="4way_30"/>
<trip id="108" depart="41.1372" fromJunction="4way_11" toJunction="3way_45"/>
<trip id="109" depart="41.518100000000004" fromJunction="4way_26" toJunction="3way_34"/>
<trip id="110" depart="41.899" fromJunction="3way_41" toJunction="4way_10"/>
<trip id="111" depart="42.279900000000005" fromJunction="4way_24" toJunction="4way_26"/>
<trip id="112" depart="42.6608" fromJunction="3way_41" toJunction="3way_46"/>
<trip id="113" depart="43.0417" fromJunction="3way_2" toJunction="4way_29"/>
<trip id="114" depart="43.4226" fromJunction="3way_7" toJunction="3way_41"/>
<trip id="115" depart="43.8035" fromJunction="4way_8" toJunction="3way_28"/>
<trip id="116" depart="44.184400000000004" fromJunction="4way_16" toJunction="3way_45"/>
<trip id="117" depart="44.5653" fromJunction="3way_13" toJunction="4way_32"/>
<trip id="118" depart="44.946200000000005" fromJunction="3way_13" toJunction="4way_29"/>
<trip id="119" depart="45.3271" fromJunction="3way_21" toJunction="4way_24"/>
<trip id="120" depart="45.708" fromJunction="3way_34" toJunction="4way_9"/>
<trip id="121" depart="46.0889" fromJunction="4way_15" toJunction="3way_20"/>
<trip id="122" depart="46.4698" fromJunction="4way_26" toJunction="3way_28"/>
<trip id="123" depart="46.8507" fromJunction="4way_31" toJunction="4way_38"/>
<trip id="124" depart="47.2316" fromJunction="3way_4" toJunction="4way_12"/>
<trip id="125" depart="47.612500000000004" fromJunction="4way_16" toJunction="4way_36"/>
<trip id="126" depart="47.9934" fromJunction="3way_44" toJunction="4way_33"/>
<trip id="127" depart="48.374300000000005" fromJunction="3way_5" toJunction="3way_47"/>
<trip id="128" depart="48.7552" fromJunction="4way_19" toJunction="3way_1"/>
<trip id="129" depart="49.1361" fromJunction="4way_11" toJunction="4way_10"/>
<trip id="130" depart="49.517" fromJunction="4way_16" toJunction="3way_45"/>
<trip id="131" depart="49.8979" fromJunction="4way_15" toJunction="3way_3"/>
<trip id="132" depart="50.278800000000004" fromJunction="4way_39" toJunction="4way_33"/>
<trip id="133" depart="50.6597" fromJunction="4way_33" toJunction="3way_35"/>
<trip id="134" depart="51.040600000000005" fromJunction="4way_26" toJunction="3way_47"/>
<trip id="135" depart="51.4215" fromJunction="4way_11" toJunction="4way_26"/>
<trip id="136" depart="51.802400000000006" fromJunction="4way_39" toJunction="4way_30"/>
<trip id="137" depart="52.1833" fromJunction="4way_32" toJunction="3way_44"/>
<trip id="138" depart="52.5642" fromJunction="3way_1" toJunction="4way_23"/>
<trip id="139" depart="52.945100000000004" fromJunction="3way_20" toJunction="3way_35"/>
<trip id="140" depart="53.326" fromJunction="4way_15" toJunction="4way_40"/>
<trip id="141" depart="53.706900000000005" fromJunction="4way_30" toJunction="4way_22"/>
<trip id="142" depart="54.0878" fromJunction="3way_20" toJunction="3way_28"/>
<trip id="143" depart="54.468700000000005" fromJunction="3way_34" toJunction="4way_18"/>
<trip id="144" depart="54.8496" fromJunction="3way_47" toJunction="4way_29"/>
<trip id="145" depart="55.2305" fromJunction="4way_32" toJunction="3way_5"/>
<trip id="146" depart="55.6114" fromJunction="4way_38" toJunction="4way_12"/>
<trip id="147" depart="55.9923" fromJunction="3way_4" toJunction="3way_43"/>
<trip id="148" depart="56.373200000000004" fromJunction="3way_47" toJunction="3way_14"/>
<trip id="149" depart="56.7541" fromJunction="3way_3" toJunction="3way_13"/>
<trip id="150" depart="57.135000000000005" fromJunction="3way_1" toJunction="4way_24"/>
<trip id="151" depart="57.5159" fromJunction="3way_20" toJunction="4way_38"/>
<trip id="152" depart="57.8968" fromJunction="3way_5" toJunction="3way_4"/>
<trip id="153" depart="58.2777" fromJunction="3way_46" toJunction="4way_10"/>
<trip id="154" depart="58.6586" fromJunction="4way_9" toJunction="3way_14"/>
<trip id="155" depart="59.039500000000004" fromJunction="4way_24" toJunction="4way_32"/>
<trip id="156" depart="59.4204" fromJunction="3way_13" toJunction="3way_45"/>
<trip id="157" depart="59.801300000000005" fromJunction="3way_44" toJunction="3way_3"/>
<trip id="158" depart="60.1822" fromJunction="4way_8" toJunction="3way_46"/>
<trip id="159" depart="60.563100000000006" fromJunction="4way_17" toJunction="4way_10"/>
<trip id="160" depart="60.944" fromJunction="3way_21" toJunction="3way_45"/>
<trip id="161" depart="61.3249" fromJunction="4way_11" toJunction="3way_34"/>
<trip id="162" depart="61.7058" fromJunction="4way_17" toJunction="3way_3"/>
<trip id="163" depart="62.0867" fromJunction="4way_38" toJunction="4way_11"/>
<trip id="164" depart="62.467600000000004" fromJunction="3way_28" toJunction="3way_46"/>
<trip id="165" depart="62.8485" fromJunction="3way_45" toJunction="4way_16"/>
<trip id="166" depart="63.229400000000005" fromJunction="3way_34" toJunction="3way_28"/>
<trip id="167" depart="63.6103" fromJunction="3way_3" toJunction="4way_8"/>
<trip id="168" depart="63.991200000000006" fromJunction="3way_4" toJunction="4way_11"/>
<trip id="169" depart="64.3721" fromJunction="3way_44" toJunction="4way_29"/>
<trip id="170" depart="64.753" fromJunction="4way_33" toJunction="4way_9"/>
<trip id="171" depart="65.1339" fromJunction="3way_2" toJunction="4way_37"/>
<trip id="172" depart="65.51480000000001" fromJunction="4way_22" toJunction="3way_7"/>
<trip id="173" depart="65.8957" fromJunction="4way_10" toJunction="4way_36"/>
<trip id="174" depart="66.2766" fromJunction="3way_13" toJunction="3way_45"/>
<trip id="175" depart="66.6575" fromJunction="4way_33" toJunction="3way_21"/>
<trip id="176" depart="67.0384" fromJunction="4way_12" toJunction="3way_34"/>
<trip id="177" depart="67.4193" fromJunction="4way_8" toJunction="4way_36"/>
<trip id="178" depart="67.8002" fromJunction="4way_8" toJunction="4way_39"/>
<trip id="179" depart="68.1811" fromJunction="3way_21" toJunction="4way_24"/>
<trip id="180" depart="68.562" fromJunction="4way_17" toJunction="4way_12"/>
<trip id="181" depart="68.94290000000001" fromJunction="3way_43" toJunction="4way_17"/>
<trip id="182" depart="69.3238" fromJunction="4way_30" toJunction="4way_38"/>
<trip id="183" depart="69.7047" fromJunction="3way_27" toJunction="3way_47"/>
<trip id="184" depart="70.0856" fromJunction="4way_33" toJunction="4way_11"/>
<trip id="185" depart="70.4665" fromJunction="4way_16" toJunction="4way_8"/>
<trip id="186" depart="70.84740000000001" fromJunction="4way_8" toJunction="4way_32"/>
<trip id="187" depart="71.2283" fromJunction="4way_9" toJunction="4way_26"/>
<trip id="188" depart="71.6092" fromJunction="4way_12" toJunction="4way_18"/>
<trip id="189" depart="71.9901" fromJunction="3way_27" toJunction="4way_18"/>
<trip id="190" depart="72.37100000000001" fromJunction="3way_21" toJunction="4way_30"/>
<trip id="191" depart="72.7519" fromJunction="3way_7" toJunction="3way_3"/>
<trip id="192" depart="73.1328" fromJunction="4way_32" toJunction="3way_46"/>
<trip id="193" depart="73.5137" fromJunction="4way_33" toJunction="3way_2"/>
<trip id="194" depart="73.8946" fromJunction="3way_28" toJunction="3way_35"/>
<trip id="195" depart="74.27550000000001" fromJunction="3way_34" toJunction="3way_1"/>
<trip id="196" depart="74.6564" fromJunction="4way_19" toJunction="3way_14"/>
<trip id="197" depart="75.0373" fromJunction="4way_26" toJunction="3way_5"/>
<trip id="198" depart="75.4182" fromJunction="4way_8" toJunction="4way_39"/>
<trip id="199" depart="75.79910000000001" fromJunction="3way_47" toJunction="3way_43"/>
<trip id="200" depart="76.18" fromJunction="3way_2" toJunction="4way_23"/>
<trip id="201" depart="76.5609" fromJunction="3way_7" toJunction="3way_1"/>
<trip id="202" depart="76.9418" fromJunction="3way_46" toJunction="3way_4"/>
<trip id="203" depart="77.3227" fromJunction="3way_46" toJunction="3way_41"/>
<trip id="204" depart="77.70360000000001" fromJunction="3way_1" toJunction="3way_13"/>
<trip id="205" depart="78.0845" fromJunction="4way_23" toJunction="3way_13"/>
<trip id="206" depart="78.4654" fromJunction="4way_40" toJunction="4way_33"/>
<trip id="207" depart="78.8463" fromJunction="3way_27" toJunction="3way_14"/>
<trip id="208" depart="79.22720000000001" fromJunction="4way_22" toJunction="4way_30"/>
<trip id="209" depart="79.60810000000001" fromJunction="3way_3" toJunction="4way_40"/>
<trip id="210" depart="79.989" fromJunction="3way_45" toJunction="4way_11"/>
<trip id="211" depart="80.3699" fromJunction="4way_37" toJunction="3way_47"/>
<trip id="212" depart="80.7508" fromJunction="4way_37" toJunction="3way_46"/>
<trip id="213" depart="81.13170000000001" fromJunction="3way_7" toJunction="4way_29"/>
<trip id="214" depart="81.5126" fromJunction="3way_45" toJunction="4way_36"/>
<trip id="215" depart="81.8935" fromJunction="3way_14" toJunction="4way_17"/>
<trip id="216" depart="82.2744" fromJunction="4way_25" toJunction="3way_28"/>
<trip id="217" depart="82.6553" fromJunction="3way_3" toJunction="4way_19"/>
<trip id="218" depart="83.03620000000001" fromJunction="3way_35" toJunction="3way_47"/>
<trip id="219" depart="83.4171" fromJunction="4way_40" toJunction="4way_18"/>
<trip id="220" depart="83.798" fromJunction="4way_12" toJunction="4way_33"/>
<trip id="221" depart="84.1789" fromJunction="4way_40" toJunction="3way_44"/>
<trip id="222" depart="84.55980000000001" fromJunction="3way_5" toJunction="3way_46"/>
<trip id="223" depart="84.9407" fromJunction="3way_47" toJunction="4way_26"/>
<trip id="224" depart="85.3216" fromJunction="3way_3" toJunction="4way_17"/>
<trip id="225" depart="85.7025" fromJunction="4way_39" toJunction="4way_24"/>
<trip id="226" depart="86.0834" fromJunction="3way_21" toJunction="3way_45"/>
<trip id="227" depart="86.46430000000001" fromJunction="4way_31" toJunction="3way_28"/>
<trip id="228" depart="86.8452" fromJunction="3way_27" toJunction="3way_47"/>
<trip id="229" depart="87.2261" fromJunction="3way_44" toJunction="4way_8"/>
<trip id="230" depart="87.607" fromJunction="3way_47" toJunction="4way_25"/>
<trip id="231" depart="87.98790000000001" fromJunction="4way_26" toJunction="4way_22"/>
<trip id="232" depart="88.36880000000001" fromJunction="4way_39" toJunction="4way_30"/>
<trip id="233" depart="88.7497" fromJunction="4way_31" toJunction="4way_26"/>
<trip id="234" depart="89.1306" fromJunction="4way_33" toJunction="4way_17"/>
<trip id="235" depart="89.5115" fromJunction="4way_8" toJunction="4way_40"/>
<trip id="236" depart="89.89240000000001" fromJunction="3way_44" toJunction="3way_4"/>
<trip id="237" depart="90.2733" fromJunction="3way_14" toJunction="3way_20"/>
<trip id="238" depart="90.6542" fromJunction="4way_23" toJunction="3way_13"/>
<trip id="239" depart="91.0351" fromJunction="4way_12" toJunction="3way_21"/>
<trip id="240" depart="91.416" fromJunction="4way_36" toJunction="4way_33"/>
<trip id="241" depart="91.79690000000001" fromJunction="4way_16" toJunction="3way_45"/>
<trip id="242" depart="92.1778" fromJunction="3way_14" toJunction="4way_12"/>
<trip id="243" depart="92.5587" fromJunction="3way_45" toJunction="4way_36"/>
<trip id="244" depart="92.9396" fromJunction="3way_14" toJunction="4way_8"/>
<trip id="245" depart="93.32050000000001" fromJunction="4way_22" toJunction="3way_46"/>
<trip id="246" depart="93.7014" fromJunction="3way_28" toJunction="3way_44"/>
<trip id="247" depart="94.0823" fromJunction="4way_31" toJunction="4way_29"/>
<trip id="248" depart="94.4632" fromJunction="4way_19" toJunction="3way_35"/>
<trip id="249" depart="94.8441" fromJunction="3way_3" toJunction="4way_32"/>
<trip id="250" depart="95.22500000000001" fromJunction="4way_8" toJunction="3way_46"/>
<trip id="251" depart="95.6059" fromJunction="3way_35" toJunction="3way_5"/>
<trip id="252" depart="95.9868" fromJunction="4way_10" toJunction="4way_31"/>
<trip id="253" depart="96.3677" fromJunction="4way_17" toJunction="4way_30"/>
<trip id="254" depart="96.74860000000001" fromJunction="3way_35" toJunction="3way_41"/>
<trip id="255" depart="97.12950000000001" fromJunction="4way_39" toJunction="4way_10"/>
<trip id="256" depart="97.5104" fromJunction="3way_45" toJunction="4way_36"/>
<trip id="257" depart="97.8913" fromJunction="4way_17" toJunction="3way_2"/>
<trip id="258" depart="98.2722" fromJunction="3way_28" toJunction="3way_1"/>
<trip id="259" depart="98.65310000000001" fromJunction="4way_19" toJunction="4way_29"/>
<trip id="260" depart="99.034" fromJunction="3way_14" toJunction="3way_5"/>
<trip id="261" depart="99.4149" fromJunction="3way_35" toJunction="3way_2"/>
<trip id="262" depart="99.7958" fromJunction="3way_45" toJunction="4way_30"/>
<trip id="263" depart="100.17670000000001" fromJunction="3way_13" toJunction="3way_41"/>
<trip id="264" depart="100.55760000000001" fromJunction="4way_17" toJunction="4way_9"/>
<trip id="265" depart="100.9385" fromJunction="4way_26" toJunction="4way_10"/>
<trip id="266" depart="101.3194" fromJunction="4way_37" toJunction="3way_1"/>
<trip id="267" depart="101.7003" fromJunction="4way_16" toJunction="4way_23"/>
<trip id="268" depart="102.08120000000001" fromJunction="3way_1" toJunction="4way_33"/>
<trip id="269" depart="102.4621" fromJunction="4way_18" toJunction="4way_17"/>
<trip id="270" depart="102.843" fromJunction="3way_35" toJunction="4way_22"/>
<trip id="271" depart="103.2239" fromJunction="3way_5" toJunction="4way_11"/>
<trip id="272" depart="103.60480000000001" fromJunction="4way_29" toJunction="3way_7"/>
<trip id="273" depart="103.98570000000001" fromJunction="3way_5" toJunction="4way_17"/>
<trip id="274" depart="104.3666" fromJunction="3way_14" toJunction="3way_47"/>
<trip id="275" depart="104.7475" fromJunction="4way_39" toJunction="4way_30"/>
<trip id="276" depart="105.1284" fromJunction="3way_20" toJunction="4way_23"/>
<trip id="277" depart="105.50930000000001" fromJunction="4way_39" toJunction="4way_40"/>
<trip id="278" depart="105.89020000000001" fromJunction="4way_19" toJunction="4way_22"/>
<trip id="279" depart="106.2711" fromJunction="4way_19" toJunction="4way_36"/>
<trip id="280" depart="106.652" fromJunction="4way_33" toJunction="4way_25"/>
<trip id="281" depart="107.0329" fromJunction="3way_2" toJunction="4way_19"/>
<trip id="282" depart="107.41380000000001" fromJunction="3way_21" toJunction="3way_27"/>
<trip id="283" depart="107.7947" fromJunction="3way_44" toJunction="4way_26"/>
<trip id="284" depart="108.1756" fromJunction="4way_39" toJunction="3way_27"/>
<trip id="285" depart="108.5565" fromJunction="4way_12" toJunction="4way_8"/>
<trip id="286" depart="108.93740000000001" fromJunction="4way_37" toJunction="3way_27"/>
<trip id="287" depart="109.31830000000001" fromJunction="3way_4" toJunction="3way_7"/>
<trip id="288" depart="109.6992" fromJunction="3way_46" toJunction="4way_17"/>
<trip id="289" depart="110.0801" fromJunction="3way_3" toJunction="3way_2"/>
<trip id="290" depart="110.461" fromJunction="4way_12" toJunction="3way_3"/>
<trip id="291" depart="110.84190000000001" fromJunction="4way_12" toJunction="4way_31"/>
<trip id="292" depart="111.2228" fromJunction="4way_29" toJunction="4way_10"/>
<trip id="293" depart="111.6037" fromJunction="4way_40" toJunction="3way_44"/>
<trip id="294" depart="111.9846" fromJunction="4way_15" toJunction="3way_28"/>
<trip id="295" depart="112.36550000000001" fromJunction="4way_40" toJunction="3way_21"/>
<trip id="296" depart="112.74640000000001" fromJunction="3way_43" toJunction="3way_27"/>
<trip id="297" depart="113.1273" fromJunction="3way_3" toJunction="4way_10"/>
<trip id="298" depart="113.5082" fromJunction="4way_15" toJunction="4way_23"/>
<trip id="299" depart="113.8891" fromJunction="3way_47" toJunction="3way_45"/>
<trip id="300" depart="114.27000000000001" fromJunction="3way_28" toJunction="4way_29"/>
<trip id="301" depart="114.65090000000001" fromJunction="3way_35" toJunction="4way_8"/>
<trip id="302" depart="115.0318" fromJunction="3way_20" toJunction="4way_33"/>
<trip id="303" depart="115.4127" fromJunction="3way_35" toJunction="3way_5"/>
<trip id="304" depart="115.7936" fromJunction="4way_37" toJunction="4way_16"/>
<trip id="305" depart="116.17450000000001" fromJunction="4way_40" toJunction="3way_21"/>
<trip id="306" depart="116.5554" fromJunction="4way_24" toJunction="3way_35"/>
<trip id="307" depart="116.9363" fromJunction="4way_18" toJunction="4way_30"/>
<trip id="308" depart="117.3172" fromJunction="4way_12" toJunction="4way_33"/>
<trip id="309" depart="117.69810000000001" fromJunction="4way_17" toJunction="4way_38"/>
<trip id="310" depart="118.07900000000001" fromJunction="3way_20" toJunction="3way_35"/>
<trip id="311" depart="118.4599" fromJunction="3way_47" toJunction="3way_3"/>
<trip id="312" depart="118.8408" fromJunction="4way_29" toJunction="3way_7"/>
<trip id="313" depart="119.2217" fromJunction="4way_33" toJunction="4way_38"/>
<trip id="314" depart="119.60260000000001" fromJunction="3way_5" toJunction="3way_13"/>
<trip id="315" depart="119.9835" fromJunction="4way_31" toJunction="4way_16"/>
<trip id="316" depart="120.3644" fromJunction="4way_26" toJunction="4way_32"/>
<trip id="317" depart="120.7453" fromJunction="3way_21" toJunction="4way_40"/>
<trip id="318" depart="121.12620000000001" fromJunction="3way_20" toJunction="3way_21"/>
<trip id="319" depart="121.50710000000001" fromJunction="4way_37" toJunction="4way_10"/>
<trip id="320" depart="121.888" fromJunction="3way_5" toJunction="4way_32"/>
<trip id="321" depart="122.2689" fromJunction="4way_16" toJunction="4way_22"/>
<trip id="322" depart="122.6498" fromJunction="3way_27" toJunction="3way_47"/>
<trip id="323" depart="123.03070000000001" fromJunction="3way_3" toJunction="4way_32"/>
<trip id="324" depart="123.4116" fromJunction="3way_13" toJunction="4way_15"/>
<trip id="325" depart="123.7925" fromJunction="4way_40" toJunction="4way_8"/>
<trip id="326" depart="124.1734" fromJunction="4way_32" toJunction="3way_7"/>
<trip id="327" depart="124.55430000000001" fromJunction="3way_45" toJunction="3way_13"/>
<trip id="328" depart="124.93520000000001" fromJunction="3way_21" toJunction="3way_14"/>
<trip id="329" depart="125.3161" fromJunction="3way_35" toJunction="4way_10"/>
<trip id="330" depart="125.697" fromJunction="4way_30" toJunction="4way_24"/>
<trip id="331" depart="126.0779" fromJunction="3way_7" toJunction="3way_21"/>
<trip id="332" depart="126.45880000000001" fromJunction="3way_4" toJunction="4way_23"/>
<trip id="333" depart="126.83970000000001" fromJunction="4way_37" toJunction="4way_25"/>
<trip id="334" depart="127.2206" fromJunction="4way_36" toJunction="4way_24"/>
<trip id="335" depart="127.6015" fromJunction="3way_14" toJunction="3way_5"/>
<trip id="336" depart="127.98240000000001" fromJunction="3way_43" toJunction="3way_14"/>
<trip id="337" depart="128.3633" fromJunction="4way_31" toJunction="3way_2"/>
<trip id="338" depart="128.7442" fromJunction="4way_23" toJunction="3way_5"/>
<trip id="339" depart="129.1251" fromJunction="4way_30" toJunction="4way_17"/>
<trip id="340" depart="129.506" fromJunction="3way_5" toJunction="4way_33"/>
<trip id="341" depart="129.8869" fromJunction="3way_2" toJunction="4way_39"/>
<trip id="342" depart="130.2678" fromJunction="3way_14" toJunction="4way_36"/>
<trip id="343" depart="130.64870000000002" fromJunction="3way_28" toJunction="4way_29"/>
<trip id="344" depart="131.02960000000002" fromJunction="3way_1" toJunction="3way_34"/>
<trip id="345" depart="131.4105" fromJunction="4way_25" toJunction="4way_29"/>
<trip id="346" depart="131.7914" fromJunction="3way_47" toJunction="3way_28"/>
<trip id="347" depart="132.1723" fromJunction="3way_5" toJunction="3way_41"/>
<trip id="348" depart="132.5532" fromJunction="3way_3" toJunction="3way_46"/>
<trip id="349" depart="132.9341" fromJunction="4way_32" toJunction="3way_3"/>
<trip id="350" depart="133.315" fromJunction="4way_9" toJunction="3way_27"/>
<trip id="351" depart="133.6959" fromJunction="4way_8" toJunction="4way_38"/>
<trip id="352" depart="134.0768" fromJunction="3way_34" toJunction="3way_20"/>
<trip id="353" depart="134.45770000000002" fromJunction="4way_29" toJunction="3way_7"/>
<trip id="354" depart="134.8386" fromJunction="4way_11" toJunction="3way_35"/>
<trip id="355" depart="135.2195" fromJunction="4way_19" toJunction="4way_31"/>
<trip id="356" depart="135.6004" fromJunction="4way_12" toJunction="3way_2"/>
<trip id="357" depart="135.9813" fromJunction="4way_39" toJunction="3way_21"/>
<trip id="358" depart="136.3622" fromJunction="4way_40" toJunction="4way_17"/>
<trip id="359" depart="136.7431" fromJunction="3way_28" toJunction="4way_38"/>
<trip id="360" depart="137.124" fromJunction="3way_28" toJunction="4way_22"/>
<trip id="361" depart="137.5049" fromJunction="3way_46" toJunction="3way_28"/>
<trip id="362" depart="137.88580000000002" fromJunction="4way_10" toJunction="4way_22"/>
<trip id="363" depart="138.26670000000001" fromJunction="4way_29" toJunction="3way_45"/>
<trip id="364" depart="138.6476" fromJunction="3way_27" toJunction="3way_13"/>
<trip id="365" depart="139.0285" fromJunction="4way_33" toJunction="3way_3"/>
<trip id="366" depart="139.4094" fromJunction="3way_34" toJunction="3way_1"/>
<trip id="367" depart="139.7903" fromJunction="3way_4" toJunction="4way_23"/>
<trip id="368" depart="140.1712" fromJunction="4way_24" toJunction="4way_39"/>
<trip id="369" depart="140.5521" fromJunction="4way_22" toJunction="4way_33"/>
<trip id="370" depart="140.933" fromJunction="4way_36" toJunction="3way_44"/>