<routes xmlns:xsi="http://www.w3.org/2001/XMLSchema-instance" xsi:noNamespaceSchemaLocation="http://sumo.dlr.de/xsd/routes_file.xsd">
<trip id="0" depart="0.0" fromJunction="4way_24" toJunction="4way_36"/>
<trip id="1" depart="0.4081" fromJunction="4way_36" toJunction="4way_23"/>
<trip id="2" depart="0.8162" fromJunction="4way_37" toJunction="3way_7"/>
<trip id="3" depart="1.2243" fromJunction="4way_12" toJunction="3way_7"/>
<trip id="4" depart="1.6324" fromJunction="3way_21" toJunction="4way_33"/>
<trip id="5" depart="2.0405" fromJunction="4way_29" toJunction="4way_11"/>
<trip id="6" depart="2.4486" fromJunction="4way_19" toJunction="4way_9"/>
<trip id="7" depart="2.8567" fromJunction="4way_25" toJunction="3way_1"/>
<trip id="8" depart="3.2648" fromJunction="4way_39" toJunction="4way_11"/>
<trip id="9" depart="3.6729000000000003" fromJunction="4way_11" toJunction="4way_40"/>
<trip id="10" depart="4.081" fromJunction="4way_11" toJunction="4way_8"/>
<trip id="11" depart="4.4891000000000005" fromJunction="4way_30" toJunction="3way_13"/>
<trip id="12" depart="4.8972" fromJunction="4way_26" toJunction="3way_20"/>
<trip id="13" depart="5.3053" fromJunction="3way_14" toJunction="4way_29"/>
<trip id="14" depart="5.7134" fromJunction="4way_38" toJunction="3way_46"/>
<trip id="15" depart="6.1215" fromJunction="4way_9" toJunction="4way_8"/>
<trip id="16" depart="6.5296" fromJunction="4way_23" toJunction="3way_1"/>
<trip id="17" depart="6.9377" fromJunction="4way_10" toJunction="4way_26"/>
<trip id="18" depart="7.3458000000000006" fromJunction="3way_7" toJunction="3way_28"/>
<trip id="19" depart="7.753900000000001" fromJunction="3way_3" toJunction="4way_17"/>
<trip id="20" depart="8.162" fromJunction="3way_13" toJunction="3way_41"/>
<trip id="21" depart="8.5701" fromJunction="3way_28" toJunction="3way_43"/>
<trip id="22" depart="8.978200000000001" fromJunction="3way_7" toJunction="4way_9"/>
<trip id="23" depart="9.3863" fromJunction="3way_5" toJunction="4way_40"/>
<trip id="24" depart="9.7944" fromJunction="3way_27" toJunction="3way_41"/>
<trip id="25" depart="10.2025" fromJunction="3way_46" toJunction="4way_37"/>
<trip id="26" depart="10.6106" fromJunction="3way_47" toJunction="4way_8"/>
<trip id="27" depart="11.0187" fromJunction="3way_5" toJunction="3way_27"/>
<trip id="28" depart="11.4268" fromJunction="3way_20" toJunction="4way_37"/>
<trip id="29" depart="11.834900000000001" fromJunction="3way_28" toJunction="3way_34"/>
<trip id="30" depart="12.243" fromJunction="3way_5" toJunction="4way_18"/>
<trip id="31" depart="12.651100000000001" fromJunction="3way_5" toJunction="4way_25"/>
<trip id="32" depart="13.0592" fromJunction="4way_15" toJunction="4way_33"/>
<trip id="33" depart="13.4673" fromJunction="4way_23" toJunction="4way_33"/>
<trip id="34" depart="13.8754" fromJunction="3way_2" toJunction="4way_31"/>
<trip id="35" depart="14.2835" fromJunction="3way_13" toJunction="3way_45"/>
<trip id="36" depart="14.691600000000001" fromJunction="3way_13" toJunction="3way_44"/>
<trip id="37" depart="15.0997" fromJunction="3way_14" toJunction="3way_43"/>
<trip id="38" depart="15.507800000000001" fromJunction="4way_17" toJunction="3way_3"/>
<trip id="39" depart="15.9159" fromJunction="3way_46" toJunction="4way_9"/>
<trip id="40" depart="16.324" fromJunction="3way_5" toJunction="4way_29"/>
<trip id="41" depart="16.7321" fromJunction="4way_19" toJunction="4way_9"/>
<trip id="42" depart="17.1402" fromJunction="4way_10" toJunction="3way_43"/>
<trip id="43" depart="17.5483" fromJunction="4way_24" toJunction="3way_13"/>
<trip id="44" depart="17.956400000000002" fromJunction="3way_34" toJunction="3way_44"/>
<trip id="45" depart="18.3645" fromJunction="3way_1" toJunction="4way_16"/>
<trip id="46" depart="18.7726" fromJunction="3way_1" toJunction="4way_25"/>
<trip id="47" depart="19.1807" fromJunction="3way_45" toJunction="4way_10"/>
<trip id="48" depart="19.5888" fromJunction="4way_33" toJunction="4way_31"/>
<trip id="49" depart="19.9969" fromJunction="4way_9" toJunction="3way_46"/>
<trip id="50" depart="20.405" fromJunction="4way_9" toJunction="4way_16"/>
<trip id="51" depart="20.813100000000002" fromJunction="4way_26" toJunction="3way_47"/>
<trip id="52" depart="21.2212" fromJunction="4way_32" toJunction="4way_8"/>
<trip id="53" depart="21.6293" fromJunction="3way_44" toJunction="4way_17"/>
<trip id="54" depart="22.0374" fromJunction="3way_21" toJunction="4way_18"/>
<trip id="55" depart="22.445500000000003" fromJunction="4way_16" toJunction="4way_39"/>
<trip id="56" depart="22.8536" fromJunction="4way_17" toJunction="4way_39"/>
<trip id="57" depart="23.2617" fromJunction="4way_22" toJunction="4way_24"/>
<trip id="58" depart="23.669800000000002" fromJunction="4way_30" toJunction="4way_33"/>
<trip id="59" depart="24.0779" fromJunction="4way_23" toJunction="3way_7"/>
<trip id="60" depart="24.486" fromJunction="3way_44" toJunction="3way_1"/>
<trip id="61" depart="24.8941" fromJunction="3way_44" toJunction="4way_37"/>
<trip id="62" depart="25.302200000000003" fromJunction="3way_7" toJunction="4way_23"/>
<trip id="63" depart="25.7103" fromJunction="3way_44" toJunction="3way_20"/>
<trip id="64" depart="26.1184" fromJunction="4way_16" toJunction="4way_9"/>
<trip id="65" depart="26.526500000000002" fromJunction="4way_37" toJunction="4way_9"/>
<trip id="66" depart="26.9346" fromJunction="3way_7" toJunction="4way_37"/>
<trip id="67" depart="27.3427" fromJunction="3way_28" toJunction="4way_12"/>
<trip id="68" depart="27.7508" fromJunction="4way_12" toJunction="3way_7"/>
<trip id="69" depart="28.158900000000003" fromJunction="4way_17" toJunction="4way_18"/>
<trip id="70" depart="28.567" fromJunction="4way_19" toJunction="3way_5"/>
<trip id="71" depart="28.9751" fromJunction="4way_40" toJunction="4way_24"/>
<trip id="72" depart="29.383200000000002" fromJunction="4way_39" toJunction="3way_20"/>
<trip id="73" depart="29.7913" fromJunction="4way_23" toJunction="3way_27"/>
<trip id="74" depart="30.1994" fromJunction="4way_32" toJunction="3way_13"/>
<trip id="75" depart="30.6075" fromJunction="4way_9" toJunction="4way_18"/>
<trip id="76" depart="31.015600000000003" fromJunction="3way_4" toJunction="3way_14"/>
<trip id="77" depart="31.4237" fromJunction="4way_8" toJunction="4way_17"/>
<trip id="78" depart="31.8318" fromJunction="4way_32" toJunction="4way_24"/>
<trip id="79" depart="32.2399" fromJunction="4way_32" toJunction="4way_33"/>
<trip id="80" depart="32.648" fromJunction="3way_28" toJunction="3way_1"/>
<trip id="81" depart="33.0561" fromJunction="3way_27" toJunction="4way_24"/>
<trip id="82" depart="33.4642" fromJunction="3way_3" toJunction="4way_29"/>
<trip id="83" depart="33.8723" fromJunction="3way_1" toJunction="3way_34"/>
<trip id="84" depart="34.2804" fromJunction="3way_47" toJunction="4way_11"/>
<trip id="85" depart="34.688500000000005" fromJunction="4way_19" toJunction="3way_35"/>
<trip id="86" depart="35.0966" fromJunction="3way_2" toJunction="4way_17"/>
<trip id="87" depart="35.5047" fromJunction="4way_23" toJunction="3way_27"/>
<trip id="88" depart="35.912800000000004" fromJunction="3way_47" toJunction="4way_9"/>
<trip id="89" depart="36.3209" fromJunction="4way_23" toJunction="4way_26"/>
<trip id="90" depart="36.729" fromJunction="4way_16" toJunction="4way_36"/>
<trip id="91" depart="37.137100000000004" fromJunction="3way_43" toJunction="4way_24"/>
<trip id="92" depart="37.5452" fromJunction="3way_41" toJunction="3way_21"/>
<trip id="93" depart="37.9533" fromJunction="4way_26" toJunction="3way_34"/>
<trip id="94" depart="38.3614" fromJunction="4way_22" toJunction="4way_31"/>
<trip id="95" depart="38.7695" fromJunction="3way_46" toJunction="3way_47"/>
<trip id="96" depart="39.1776" fromJunction="3way_7" toJunction="3way_3"/>
<trip id="97" depart="39.5857" fromJunction="4way_17" toJunction="3way_43"/>
<trip id="98" depart="39.9938" fromJunction="3way_34" toJunction="3way_28"/>
<trip id="99" depart="40.401900000000005" fromJunction="3way_4" toJunction="3way_2"/>
<trip id="100" depart="40.81" fromJunction="4way_8" toJunction="4way_10"/>
<trip id="101" depart="41.2181" fromJunction="4way_12" toJunction="4way_36"/>
<trip id="102" depart="41.626200000000004" fromJunction="3way_41" toJunction="4way_40"/>
<trip id="103" depart="42.0343" fromJunction="3way_46" toJunction="4way_37"/>
<trip id="104" depart="42.4424" fromJunction="4way_38" toJunction="3way_1"/>
<trip id="105" depart="42.850500000000004" fromJunction="3way_21" toJunction="3way_43"/>
<trip id="106" depart="43.2586" fromJunction="4way_25" toJunction="4way_16"/>
<trip id="107" depart="43.6667" fromJunction="4way_39" toJunction="4way_30"/>
<trip id="108" depart="44.0748" fromJunction="4way_11" toJunction="3way_45"/>
<trip id="109" depart="44.4829" fromJunction="4way_26" toJunction="3way_34"/>
<trip id="110" depart="44.891000000000005" fromJunction="3way_41" toJunction="4way_10"/>
<trip id="111" depart="45.2991" fromJunction="4way_24" toJunction="4way_26"/>
<trip id="112" depart="45.7072" fromJunction="3way_41" toJunction="3way_46"/>
<trip id="113" depart="46.115300000000005" fromJunction="3way_2" toJunction="4way_29"/>
<trip id="114" depart="46.5234" fromJunction="3way_7" toJunction="3way_41"/>
<trip id="115" depart="46.9315" fromJunction="4way_8" toJunction="3way_28"/>
<trip id="116" depart="47.339600000000004" fromJunction="4way_16" toJunction="3way_45"/>
<trip id="117" depart="47.7477" fromJunction="3way_13" toJunction="4way_32"/>
<trip id="118" depart="48.1558" fromJunction="3way_13" toJunction="4way_29"/>
<trip id="119" depart="48.563900000000004" fromJunction="3way_21" toJunction="4way_24"/>
<trip id="120" depart="48.972" fromJunction="3way_34" toJunction="4way_9"/>
<trip id="121" depart="49.3801" fromJunction="4way_15" toJunction="3way_20"/>
<trip id="122" depart="49.7882" fromJunction="4way_26" toJunction="3way_28"/>
<trip id="123" depart="50.1963" fromJunction="4way_31" toJunction="4way_38"/>
<trip id="124" depart="50.604400000000005" fromJunction="3way_4" toJunction="4way_12"/>
<trip id="125" depart="51.0125" fromJunction="4way_16" toJunction="4way_36"/>
<trip id="126" depart="51.4206" fromJunction="3way_44" toJunction="4way_33"/>
<trip id="127" depart="51.828700000000005" fromJunction="3way_5" toJunction="3way_47"/>
<trip id="128" depart="52.2368" fromJunction="4way_19" toJunction="3way_1"/>
<trip id="129" depart="52.6449" fromJunction="4way_11" toJunction="4way_10"/>
<trip id="130" depart="53.053000000000004" fromJunction="4way_16" toJunction="3way_45"/>
<trip id="131" depart="53.4611" fromJunction="4way_15" toJunction="3way_3"/>
<trip id="132" depart="53.8692" fromJunction="4way_39" toJunction="4way_33"/>
<trip id="133" depart="54.277300000000004" fromJunction="4way_33" toJunction="3way_35"/>
<trip id="134" depart="54.6854" fromJunction="4way_26" toJunction="3way_47"/>
<trip id="135" depart="55.093500000000006" fromJunction="4way_11" toJunction="4way_26"/>
<trip id="136" depart="55.5016" fromJunction="4way_39" toJunction="4way_30"/>
<trip id="137" depart="55.9097" fromJunction="4way_32" toJunction="3way_44"/>
<trip id="138" depart="56.317800000000005" fromJunction="3way_1" toJunction="4way_23"/>
<trip id="139" depart="56.7259" fromJunction="3way_20" toJunction="3way_35"/>
<trip id="140" depart="57.134" fromJunction="4way_15" toJunction="4way_40"/>
<trip id="141" depart="57.542100000000005" fromJunction="4way_30" toJunction="4way_22"/>
<trip id="142" depart="57.9502" fromJunction="3way_20" toJunction="3way_28"/>
<trip id="143" depart="58.3583" fromJunction="3way_34" toJunction="4way_18"/>
<trip id="144" depart="58.766400000000004" fromJunction="3way_47" toJunction="4way_29"/>
<trip id="145" depart="59.1745" fromJunction="4way_32" toJunction="3way_5"/>
<trip id="146" depart="59.5826" fromJunction="4way_38" toJunction="4way_12"/>
<trip id="147" depart="59.990700000000004" fromJunction="3way_4" toJunction="3way_43"/>
<trip id="148" depart="60.3988" fromJunction="3way_47" toJunction="3way_14"/>
<trip id="149" depart="60.806900000000006" fromJunction="3way_3" toJunction="3way_13"/>
<trip id="150" depart="61.215" fromJunction="3way_1" toJunction="4way_24"/>
<trip id="151" depart="61.6231" fromJunction="3way_20" toJunction="4way_38"/>
<trip id="152" depart="62.031200000000005" fromJunction="3way_5" toJunction="3way_4"/>
<trip id="153" depart="62.4393" fromJunction="3way_46" toJunction="4way_10"/>
<trip id="154" depart="62.8474" fromJunction="4way_9" toJunction="3way_14"/>
<trip id="155" depart="63.255500000000005" fromJunction="4way_24" toJunction="4way_32"/>
<trip id="156" depart="63.6636" fromJunction="3way_13" toJunction="3way_45"/>
<trip id="157" depart="64.0717" fromJunction="3way_44" toJunction="3way_3"/>
<trip id="158" depart="64.4798" fromJunction="4way_8" toJunction="3way_46"/>
<trip id="159" depart="64.8879" fromJunction="4way_17" toJunction="4way_10"/>
<trip id="160" depart="65.296" fromJunction="3way_21" toJunction="3way_45"/>
<trip id="161" depart="65.7041" fromJunction="4way_11" toJunction="3way_34"/>
<trip id="162" depart="66.1122" fromJunction="4way_17" toJunction="3way_3"/>
<trip id="163" depart="66.5203" fromJunction="4way_38" toJunction="4way_11"/>
<trip id="164" depart="66.9284" fromJunction="3way_28" toJunction="3way_46"/>
<trip id="165" depart="67.3365" fromJunction="3way_45" toJunction="4way_16"/>
<trip id="166" depart="67.7446" fromJunction="3way_34" toJunction="3way_28"/>
<trip id="167" depart="68.15270000000001" fromJunction="3way_3" toJunction="4way_8"/>
<trip id="168" depart="68.5608" fromJunction="3way_4" toJunction="4way_11"/>
<trip id="169" depart="68.9689" fromJunction="3way_44" toJunction="4way_29"/>
<trip id="170" depart="69.37700000000001" fromJunction="4way_33" toJunction="4way_9"/>
<trip id="171" depart="69.7851" fromJunction="3way_2" toJunction="4way_37"/>
<trip id="172" depart="70.1932" fromJunction="4way_22" toJunction="3way_7"/>
<trip id="173" depart="70.60130000000001" fromJunction="4way_10" toJunction="4way_36"/>
<trip id="174" depart="71.0094" fromJunction="3way_13" toJunction="3way_45"/>
<trip id="175" depart="71.4175" fromJunction="4way_33" toJunction="3way_21"/>
<trip id="176" depart="71.82560000000001" fromJunction="4way_12" toJunction="3way_34"/>
<trip id="177" depart="72.2337" fromJunction="4way_8" toJunction="4way_36"/>
<trip id="178" depart="72.6418" fromJunction="4way_8" toJunction="4way_39"/>
<trip id="179" depart="73.04990000000001" fromJunction="3way_21" toJunction="4way_24"/>
<trip id="180" depart="73.458" fromJunction="4way_17" toJunction="4way_12"/>
<trip id="181" depart="73.8661" fromJunction="3way_43" toJunction="4way_17"/>
<trip id="182" depart="74.27420000000001" fromJunction="4way_30" toJunction="4way_38"/>
<trip id="183" depart="74.6823" fromJunction="3way_27" toJunction="3way_47"/>
<trip id="184" depart="75.0904" fromJunction="4way_33" toJunction="4way_11"/>
<trip id="185" depart="75.4985" fromJunction="4way_16" toJunction="4way_8"/>
<trip id="186" depart="75.9066" fromJunction="4way_8" toJunction="4way_32"/>
<trip id="187" depart="76.3147" fromJunction="4way_9" toJunction="4way_26"/>
<trip id="188" depart="76.7228" fromJunction="4way_12" toJunction="4way_18"/>
<trip id="189" depart="77.1309" fromJunction="3way_27" toJunction="4way_18"/>
<trip id="190" depart="77.539" fromJunction="3way_21" toJunction="4way_30"/>
<trip id="191" depart="77.9471" fromJunction="3way_7" toJunction="3way_3"/>
<trip id="192" depart="78.3552" fromJunction="4way_32" toJunction="3way_46"/>
<trip id="193" depart="78.7633" fromJunction="4way_33" toJunction="3way_2"/>
<trip id="194" depart="79.1714" fromJunction="3way_28" toJunction="3way_35"/>
<trip id="195" depart="79.57950000000001" fromJunction="3way_34" toJunction="3way_1"/>
<trip id="196" depart="79.9876" fromJunction="4way_19" toJunction="3way_14"/>
<trip id="197" depart="80.3957" fromJunction="4way_26" toJunction="3way_5"/>
<trip id="198" depart="80.80380000000001" fromJunction="4way_8" toJunction="4way_39"/>
<trip id="199" depart="81.2119" fromJunction="3way_47" toJunction="3way_43"/>
<trip id="200" depart="81.62" fromJunction="3way_2" toJunction="4way_23"/>
<trip id="201" depart="82.02810000000001" fromJunction="3way_7" toJunction="3way_1"/>
<trip id="202" depart="82.4362" fromJunction="3way_46" toJunction="3way_4"/>
<trip id="203" depart="82.8443" fromJunction="3way_46" toJunction="3way_41"/>
<trip id="204" depart="83.25240000000001" fromJunction="3way_1" toJunction="3way_13"/>
<trip id="205" depart="83.6605" fromJunction="4way_23" toJunction="3way_13"/>
<trip id="206" depart="84.0686" fromJunction="4way_40" toJunction="4way_33"/>
<trip id="207" depart="84.47670000000001" fromJunction="3way_27" toJunction="3way_14"/>
<trip id="208" depart="84.8848" fromJunction="4way_22" toJunction="4way_30"/>
<trip id="209" depart="85.2929" fromJunction="3way_3" toJunction="4way_40"/>
<trip id="210" depart="85.70100000000001" fromJunction="3way_45" toJunction="4way_11"/>
<trip id="211" depart="86.1091" fromJunction="4way_37" toJunction="3way_47"/>
<trip id="212" depart="86.5172" fromJunction="4way_37" toJunction="3way_46"/>
<trip id="213" depart="86.92530000000001" fromJunction="3way_7" toJunction="4way_29"/>
<trip id="214" depart="87.3334" fromJunction="3way_45" toJunction="4way_36"/>
<trip id="215" depart="87.7415" fromJunction="3way_14" toJunction="4way_17"/>
<trip id="216" depart="88.1496" fromJunction="4way_25" toJunction="3way_28"/>
<trip id="217" depart="88.5577" fromJunction="3way_3" toJunction="4way_19"/>
<trip id="218" depart="88.9658" fromJunction="3way_35" toJunction="3way_47"/>
<trip id="219" depart="89.3739" fromJunction="4way_40" toJunction="4way_18"/>
<trip id="220" depart="89.78200000000001" fromJunction="4way_12" toJunction="4way_33"/>
<trip id="221" depart="90.1901" fromJunction="4way_40" toJunction="3way_44"/>
<trip id="222" depart="90.5982" fromJunction="3way_5" toJunction="3way_46"/>
<trip id="223" depart="91.00630000000001" fromJunction="3way_47" toJunction="4way_26"/>
<trip id="224" depart="91.4144" fromJunction="3way_3" toJunction="4way_17"/>
<trip id="225" depart="91.8225" fromJunction="4way_39" toJunction="4way_24"/>
<trip id="226" depart="92.23060000000001" fromJunction="3way_21" toJunction="3way_45"/>
<trip id="227" depart="92.6387" fromJunction="4way_31" toJunction="3way_28"/>
<trip id="228" depart="93.0468" fromJunction="3way_27" toJunction="3way_47"/>
<trip id="229" depart="93.45490000000001" fromJunction="3way_44" toJunction="4way_8"/>
<trip id="230" depart="93.863" fromJunction="3way_47" toJunction="4way_25"/>
<trip id="231" depart="94.2711" fromJunction="4way_26" toJunction="4way_22"/>
<trip id="232" depart="94.67920000000001" fromJunction="4way_39" toJunction="4way_30"/>
<trip id="233" depart="95.0873" fromJunction="4way_31" toJunction="4way_26"/>
<trip id="234" depart="95.4954" fromJunction="4way_33" toJunction="4way_17"/>
<trip id="235" depart="95.90350000000001" fromJunction="4way_8" toJunction="4way_40"/>
<trip id="236" depart="96.3116" fromJunction="3way_44" toJunction="3way_4"/>
<trip id="237" depart="96.7197" fromJunction="3way_14" toJunction="3way_20"/>
<trip id="238" depart="97.12780000000001" fromJunction="4way_23" toJunction="3way_13"/>
<trip id="239" depart="97.5359" fromJunction="4way_12" toJunction="3way_21"/>
<trip id="240" depart="97.944" fromJunction="4way_36" toJunction="4way_33"/>
<trip id="241" depart="98.35210000000001" fromJunction="4way_16" toJunction="3way_45"/>
<trip id="242" depart="98.7602" fromJunction="3way_14" toJunction="4way_12"/>
<trip id="243" depart="99.1683" fromJunction="3way_45" toJunction="4way_36"/>
<trip id="244" depart="99.5764" fromJunction="3way_14" toJunction="4way_8"/>
<trip id="245" depart="99.98450000000001" fromJunction="4way_22" toJunction="3way_46"/>
<trip id="246" depart="100.3926" fromJunction="3way_28" toJunction="3way_44"/>
<trip id="247" depart="100.8007" fromJunction="4way_31" toJunction="4way_29"/>
<trip id="248" depart="101.20880000000001" fromJunction="4way_19" toJunction="3way_35"/>
<trip id="249" depart="101.6169" fromJunction="3way_3" toJunction="4way_32"/>
<trip id="250" depart="102.025" fromJunction="4way_8" toJunction="3way_46"/>
<trip id="251" depart="102.43310000000001" fromJunction="3way_35" toJunction="3way_5"/>
<trip id="252" depart="102.8412" fromJunction="4way_10" toJunction="4way_31"/>
<trip id="253" depart="103.2493" fromJunction="4way_17" toJunction="4way_30"/>
<trip id="254" depart="103.65740000000001" fromJunction="3way_35" toJunction="3way_41"/>
<trip id="255" depart="104.0655" fromJunction="4way_39" toJunction="4way_10"/>
<trip id="256" depart="104.4736" fromJunction="3way_45" toJunction="4way_36"/>
<trip id="257" depart="104.88170000000001" fromJunction="4way_17" toJunction="3way_2"/>
<trip id="258" depart="105.2898" fromJunction="3way_28" toJunction="3way_1"/>
<trip id="259" depart="105.6979" fromJunction="4way_19" toJunction="4way_29"/>
<trip id="260" depart="106.10600000000001" fromJunction="3way_14" toJunction="3way_5"/>
<trip id="261" depart="106.5141" fromJunction="3way_35" toJunction="3way_2"/>
<trip id="262" depart="106.9222" fromJunction="3way_45" toJunction="4way_30"/>
<trip id="263" depart="107.33030000000001" fromJunction="3way_13" toJunction="3way_41"/>
<trip id="264" depart="107.7384" fromJunction="4way_17" toJunction="4way_9"/>
<trip id="265" depart="108.1465" fromJunction="4way_26" toJunction="4way_10"/>
<trip id="266" depart="108.55460000000001" fromJunction="4way_37" toJunction="3way_1"/>
<trip id="267" depart="108.9627" fromJunction="4way_16" toJunction="4way_23"/>
<trip id="268" depart="109.3708" fromJunction="3way_1" toJunction="4way_33"/>
<trip id="269" depart="109.77890000000001" fromJunction="4way_18" toJunction="4way_17"/>
<trip id="270" depart="110.18700000000001" fromJunction="3way_35" toJunction="4way_22"/>
<trip id="271" depart="110.5951" fromJunction="3way_5" toJunction="4way_11"/>
<trip id="272" depart="111.0032" fromJunction="4way_29" toJunction="3way_7"/>
<trip id="273" depart="111.41130000000001" fromJunction="3way_5" toJunction="4way_17"/>
<trip id="274" depart="111.8194" fromJunction="3way_14" toJunction="3way_47"/>
<trip id="275" depart="112.2275" fromJunction="4way_39" toJunction="4way_30"/>
<trip id="276" depart="112.63560000000001" fromJunction="3way_20" toJunction="4way_23"/>
<trip id="277" depart="113.0437" fromJunction="4way_39" toJunction="4way_40"/>
<trip id="278" depart="113.4518" fromJunction="4way_19" toJunction="4way_22"/>
<trip id="279" depart="113.85990000000001" fromJunction="4way_19" toJunction="4way_36"/>
<trip id="280" depart="114.268" fromJunction="4way_33" toJunction="4way_25"/>
<trip id="281" depart="114.6761" fromJunction="3way_2" toJunction="4way_19"/>
<trip id="282" depart="115.08420000000001" fromJunction="3way_21" toJunction="3way_27"/>
<trip id="283" depart="115.4923" fromJunction="3way_44" toJunction="4way_26"/>
<trip id="284" depart="115.9004" fromJunction="4way_39" toJunction="3way_27"/>
<trip id="285" depart="116.30850000000001" fromJunction="4way_12" toJunction="4way_8"/>
<trip id="286" depart="116.7166" fromJunction="4way_37" toJunction="3way_27"/>
<trip id="287" depart="117.1247" fromJunction="3way_4" toJunction="3way_7"/>
<trip id="288" depart="117.53280000000001" fromJunction="3way_46" toJunction="4way_17"/>
<trip id="289" depart="117.9409" fromJunction="3way_3" toJunction="3way_2"/>
<trip id="290" depart="118.349" fromJunction="4way_12" toJunction="3way_3"/>
<trip id="291" depart="118.75710000000001" fromJunction="4way_12" toJunction="4way_31"/>
<trip id="292" depart="119.1652" fromJunction="4way_29" toJunction="4way_10"/>
<trip id="293" depart="119.5733" fromJunction="4way_40" toJunction="3way_44"/>
<trip id="294" depart="119.98140000000001" fromJunction="4way_15" toJunction="3way_28"/>
<trip id="295" depart="120.38950000000001" fromJunction="4way_40" toJunction="3way_21"/>
<trip id="296" depart="120.7976" fromJunction="3way_43" toJunction="3way_27"/>
<trip id="297" depart="121.20570000000001" fromJunction="3way_3" toJunction="4way_10"/>
<trip id="298" depart="121.61380000000001" fromJunction="4way_15" toJunction="4way_23"/>
<trip id="299" depart="122.0219" fromJunction="3way_47" toJunction="3way_45"/>
<trip id="300" depart="122.43" fromJunction="3way_28" toJunction="4way_29"/>
<trip id="301" depart="122.83810000000001" fromJunction="3way_35" toJunction="4way_8"/>
<trip id="302" depart="123.2462" fromJunction="3way_20" toJunction="4way_33"/>
<trip id="303" depart="123.6543" fromJunction="3way_35" toJunction="3way_5"/>
<trip id="304" depart="124.06240000000001" fromJunction="4way_37" toJunction="4way_16"/>
<trip id="305" depart="124.4705" fromJunction="4way_40" toJunction="3way_21"/>
<trip id="306" depart="124.8786" fromJunction="4way_24" toJunction="3way_35"/>
<trip id="307" depart="125.28670000000001" fromJunction="4way_18" toJunction="4way_30"/>
<trip id="308" depart="125.6948" fromJunction="4way_12" toJunction="4way_33"/>
<trip id="309" depart="126.1029" fromJunction="4way_17" toJunction="4way_38"/>
<trip id="310" depart="126.51100000000001" fromJunction="3way_20" toJunction="3way_35"/>
<trip id="311" depart="126.9191" fromJunction="3way_47" toJunction="3way_3"/>
<trip id="312" depart="127.3272" fromJunction="4way_29" toJunction="3way_7"/>
<trip id="313" depart="127.73530000000001" fromJunction="4way_33" toJunction="4way_38"/>
<trip id="314" depart="128.1434" fromJunction="3way_5" toJunction="3way_13"/>
<trip id="315" depart="128.5515" fromJunction="4way_31" toJunction="4way_16"/>
<trip id="316" depart="128.9596" fromJunction="4way_26" toJunction="4way_32"/>
<trip id="317" depart="129.3677" fromJunction="3way_21" toJunction="4way_40"/>
<trip id="318" depart="129.7758" fromJunction="3way_20" toJunction="3way_21"/>
<trip id="319" depart="130.1839" fromJunction="4way_37" toJunction="4way_10"/>
<trip id="320" depart="130.592" fromJunction="3way_5" toJunction="4way_32"/>
<trip id="321" depart="131.0001" fromJunction="4way_16" toJunction="4way_22"/>
<trip id="322" depart="131.4082" fromJunction="3way_27" toJunction="3way_47"/>
<trip id="323" depart="131.8163" fromJunction="3way_3" toJunction="4way_32"/>
<trip id="324" depart="132.2244" fromJunction="3way_13" toJunction="4way_15"/>
<trip id="325" depart="132.6325" fromJunction="4way_40" toJunction="4way_8"/>
<trip id="326" depart="133.0406" fromJunction="4way_32" toJunction="3way_7"/>
<trip id="327" depart="133.4487" fromJunction="3way_45" toJunction="3way_13"/>
<trip id="328" depart="133.8568" fromJunction="3way_21" toJunction="3way_14"/>
<trip id="329" depart="134.2649" fromJunction="3way_35" toJunction="4way_10"/>
<trip id="330" depart="134.673" fromJunction="4way_30" toJunction="4way_24"/>
<trip id="331" depart="135.0811" fromJunction="3way_7" toJunction="3way_21"/>
<trip id="332" depart="135.4892" fromJunction="3way_4" toJunction="4way_23"/>
<trip id="333" depart="135.8973" fromJunction="4way_37" toJunction="4way_25"/>
<trip id="334" depart="136.30540000000002" fromJunction="4way_36" toJunction="4way_24"/>
<trip id="335" depart="136.7135" fromJunction="3way_14" toJunction="3way_5"/>
<trip id="336" depart="137.1216" fromJunction="3way_43" toJunction="3way_14"/>
<trip id="337" depart="137.52970000000002" fromJunction="4way_31" toJunction="3way_2"/>
<trip id="338" depart="137.9378" fromJunction="4way_23" toJunction="3way_5"/>
<trip id="339" depart="138.3459" fromJunction="4way_30" toJunction="4way_17"/>
<trip id="340" depart="138.75400000000002" fromJunction="3way_5" toJunction="4way_33"/>
<trip id="341" depart="139.1621" fromJunction="3way_2" toJunction="4way_39"/>
<trip id="342" depart="139.5702" fromJunction="3way_14" toJunction="4way_36"/>
<trip id="343" depart="139.97830000000002" fromJunction="3way_28" toJunction="4way_29"/>
<trip id="344" depart="140.3864" fromJunction="3way_1" toJunction="3way_34"/>
<trip id="345" depart="140.7945" fromJunction="4way_25" toJunction="4way_29"/>
<trip id="346" depart="141.20260000000002" fromJunction="3way_47" toJunction="3way_28"/>
<trip id="347" depart="141.6107" fromJunction="3way_5" toJunction="3way_41"/>
<trip id="348" depart="142.0188" fromJunction="3way_3" toJunction="3way_46"/>
<trip id="349" depart="142.42690000000002" fromJunction="4way_32" toJunction="3way_3"/>
<trip id="350" depart="142.835" fromJunction="4way_9" toJunction="3way_27"/>
<trip id="351" depart="143.2431" fromJunction="4way_8" toJunction="4way_38"/>
<trip id="352" depart="143.65120000000002" fromJunction="3way_34" toJunction="3way_20"/>
<trip id="353" depart="144.0593" fromJunction="4way_29" toJunction="3way_7"/>
<trip id="354" depart="144.4674" fromJunction="4way_11" toJunction="3way_35"/>
<trip id="355" depart="144.87550000000002" fromJunction="4way_19" toJunction="4way_31"/>
<trip id="356" depart="145.2836" fromJunction="4way_12" toJunction="3way_2"/>
<trip id="357" depart="145.6917" fromJunction="4way_39" toJunction="3way_21"/>
<trip id="358" depart="146.09980000000002" fromJunction="4way_40" toJunction="4way_17"/>
<trip id="359" depart="146.5079" fromJunction="3way_28" toJunction="4way_38"/>
<trip id="360" depart="146.916" fromJunction="3way_28" toJunction="4way_22"/>
<trip id="361" depart="147.32410000000002" fromJunction="3way_46" toJunction="3way_28"/>
<trip id="362" depart="147.7322" fromJunction="4way_10" toJunction="4way_22"/>
<trip id="363" depart="148.1403" fromJunction="4way_29" toJunction="3way_45"/>
<trip id="364" depart="148.54840000000002" fromJunction="3way_27" toJunction="3way_13"/>
<trip id="365" depart="148.9565" fromJunction="4way_33" toJunction="3way_3"/>
<trip id="366" depart="149.3646" fromJunction="3way_34" toJunction="3way_1"/>
<trip id="367" depart="149.77270000000001" fromJunction="3way_4" toJunction="4way_23"/>
<trip id="368" depart="150.1808" fromJunction="4way_24" toJunction="4way_39"/>
<trip id="369" depart="150.5889" fromJunction="4way_22" toJunction="4way_33"/>
<trip id="370" depart="150.997" fromJunction="4way_36" toJunction="3way_44"/>
<trip id="371" depart="151.4051" fromJunction="4way_29" toJunction="4way_19"/>