<routes xmlns:xsi="http://www.w3.org/2001/XMLSchema-instance" xsi:noNamespaceSchemaLocation="http://sumo.dlr.de/xsd/routes_file.xsd">
<trip id="0" depart="0.0" fromJunction="4way_24" toJunction="4way_36"/>
<trip id="1" depart="0.5714" fromJunction="4way_36" toJunction="4way_23"/>
<trip id="2" depart="1.1428" fromJunction="4way_37" toJunction="3way_7"/>
<trip id="3" depart="1.7142" fromJunction="4way_12" toJunction="3way_7"/>
<trip id="4" depart="2.2856" fromJunction="3way_21" toJunction="4way_33"/>
<trip id="5" depart="2.857" fromJunction="4way_29" toJunction="4way_11"/>
<trip id="6" depart="3.4284" fromJunction="4way_19" toJunction="4way_9"/>
<trip id="7" depart="3.9998" fromJunction="4way_25" toJunction="3way_1"/>
<trip id="8" depart="4.5712" fromJunction="4way_39" toJunction="4way_11"/>
<trip id="9" depart="5.1426" fromJunction="4way_11" toJunction="4way_40"/>
<trip id="10" depart="5.714" fromJunction="4way_11" toJunction="4way_8"/>
<trip id="11" depart="6.2854" fromJunction="4way_30" toJunction="3way_13"/>
<trip id="12" depart="6.8568" fromJunction="4way_26" toJunction="3way_20"/>
<trip id="13" depart="7.4282" fromJunction="3way_14" toJunction="4way_29"/>
<trip id="14" depart="7.9996" fromJunction="4way_38" toJunction="3way_46"/>
<trip id="15" depart="8.571" fromJunction="4way_9" toJunction="4way_8"/>
<trip id="16" depart="9.1424" fromJunction="4way_23" toJunction="3way_1"/>
<trip id="17" depart="9.7138" fromJunction="4way_10" toJunction="4way_26"/>
<trip id="18" depart="10.2852" fromJunction="3way_7" toJunction="3way_28"/>
<trip id="19" depart="10.8566" fromJunction="3way_3" toJunction="4way_17"/>
<trip id="20" depart="11.428" fromJunction="3way_13" toJunction="3way_41"/>
<trip id="21" depart="11.9994" fromJunction="3way_28" toJunction="3way_43"/>
<trip id="22" depart="12.5708" fromJunction="3way_7" toJunction="4way_9"/>
<trip id="23" depart="13.1422" fromJunction="3way_5" toJunction="4way_40"/>
<trip id="24" depart="13.7136" fromJunction="3way_27" toJunction="3way_41"/>
<trip id="25" depart="14.285" fromJunction="3way_46" toJunction="4way_37"/>
<trip id="26" depart="14.8564" fromJunction="3way_47" toJunction="4way_8"/>
<trip id="27" depart="15.427800000000001" fromJunction="3way_5" toJunction="3way_27"/>
<trip id="28" depart="15.9992" fromJunction="3way_20" toJunction="4way_37"/>
<trip id="29" depart="16.5706" fromJunction="3way_28" toJunction="3way_34"/>
<trip id="30" depart="17.142" fromJunction="3way_5" toJunction="4way_18"/>
<trip id="31" depart="17.7134" fromJunction="3way_5" toJunction="4way_25"/>
<trip id="32" depart="18.2848" fromJunction="4way_15" toJunction="4way_33"/>
<trip id="33" depart="18.8562" fromJunction="4way_23" toJunction="4way_33"/>
<trip id="34" depart="19.4276" fromJunction="3way_2" toJunction="4way_31"/>
<trip id="35" depart="19.999000000000002" fromJunction="3way_13" toJunction="3way_45"/>
<trip id="36" depart="20.5704" fromJunction="3way_13" toJunction="3way_44"/>
<trip id="37" depart="21.1418" fromJunction="3way_14" toJunction="3way_43"/>
<trip id="38" depart="21.7132" fromJunction="4way_17" toJunction="3way_3"/>
<trip id="39" depart="22.2846" fromJunction="3way_46" toJunction="4way_9"/>
<trip id="40" depart="22.856" fromJunction="3way_5" toJunction="4way_29"/>
<trip id="41" depart="23.427400000000002" fromJunction="4way_19" toJunction="4way_9"/>
<trip id="42" depart="23.9988" fromJunction="4way_10" toJunction="3way_43"/>
<trip id="43" depart="24.5702" fromJunction="4way_24" toJunction="3way_13"/>
<trip id="44" depart="25.1416" fromJunction="3way_34" toJunction="3way_44"/>
<trip id="45" depart="25.713" fromJunction="3way_1" toJunction="4way_16"/>
<trip id="46" depart="26.2844" fromJunction="3way_1" toJunction="4way_25"/>
<trip id="47" depart="26.855800000000002" fromJunction="3way_45" toJunction="4way_10"/>
<trip id="48" depart="27.4272" fromJunction="4way_33" toJunction="4way_31"/>
<trip id="49" depart="27.9986" fromJunction="4way_9" toJunction="3way_46"/>
<trip id="50" depart="28.57" fromJunction="4way_9" toJunction="4way_16"/>
<trip id="51" depart="29.1414" fromJunction="4way_26" toJunction="3way_47"/>
<trip id="52" depart="29.7128" fromJunction="4way_32" toJunction="4way_8"/>
<trip id="53" depart="30.284200000000002" fromJunction="3way_44" toJunction="4way_17"/>
<trip id="54" depart="30.855600000000003" fromJunction="3way_21" toJunction="4way_18"/>
<trip id="55" depart="31.427" fromJunction="4way_16" toJunction="4way_39"/>
<trip id="56" depart="31.9984" fromJunction="4way_17" toJunction="4way_39"/>
<trip id="57" depart="32.5698" fromJunction="4way_22" toJunction="4way_24"/>
<trip id="58" depart="33.1412" fromJunction="4way_30" toJunction="4way_33"/>
<trip id="59" depart="33.7126" fromJunction="4way_23" toJunction="3way_7"/>
<trip id="60" depart="34.284" fromJunction="3way_44" toJunction="3way_1"/>
<trip id="61" depart="34.8554" fromJunction="3way_44" toJunction="4way_37"/>
<trip id="62" depart="35.4268" fromJunction="3way_7" toJunction="4way_23"/>
<trip id="63" depart="35.998200000000004" fromJunction="3way_44" toJunction="3way_20"/>
<trip id="64" depart="36.5696" fromJunction="4way_16" toJunction="4way_9"/>
<trip id="65" depart="37.141" fromJunction="4way_37" toJunction="4way_9"/>
<trip id="66" depart="37.7124" fromJunction="3way_7" toJunction="4way_37"/>
<trip id="67" depart="38.2838" fromJunction="3way_28" toJunction="4way_12"/>
<trip id="68" depart="38.8552" fromJunction="4way_12" toJunction="3way_7"/>
<trip id="69" depart="39.4266" fromJunction="4way_17" toJunction="4way_18"/>
<trip id="70" depart="39.998000000000005" fromJunction="4way_19" toJunction="3way_5"/>
<trip id="71" depart="40.5694" fromJunction="4way_40" toJunction="4way_24"/>
<trip id="72" depart="41.1408" fromJunction="4way_39" toJunction="3way_20"/>
<trip id="73" depart="41.7122" fromJunction="4way_23" toJunction="3way_27"/>
<trip id="74" depart="42.2836" fromJunction="4way_32" toJunction="3way_13"/>
<trip id="75" depart="42.855000000000004" fromJunction="4way_9" toJunction="4way_18"/>
<trip id="76" depart="43.4264" fromJunction="3way_4" toJunction="3way_14"/>
<trip id="77" depart="43.9978" fromJunction="4way_8" toJunction="4way_17"/>
<trip id="78" depart="44.5692" fromJunction="4way_32" toJunction="4way_24"/>
<trip id="79" depart="45.1406" fromJunction="4way_32" toJunction="4way_33"/>
<trip id="80" depart="45.712" fromJunction="3way_28" toJunction="3way_1"/>
<trip id="81" depart="46.2834" fromJunction="3way_27" toJunction="4way_24"/>
<trip id="82" depart="46.854800000000004" fromJunction="3way_3" toJunction="4way_29"/>
<trip id="83" depart="47.4262" fromJunction="3way_1" toJunction="3way_34"/>
<trip id="84" depart="47.9976" fromJunction="3way_47" toJunction="4way_11"/>
<trip id="85" depart="48.569" fromJunction="4way_19" toJunction="3way_35"/>
<trip id="86" depart="49.1404" fromJunction="3way_2" toJunction="4way_17"/>
<trip id="87" depart="49.711800000000004" fromJunction="4way_23" toJunction="3way_27"/>
<trip id="88" depart="50.2832" fromJunction="3way_47" toJunction="4way_9"/>
<trip id="89" depart="50.854600000000005" fromJunction="4way_23" toJunction="4way_26"/>
<trip id="90" depart="51.426" fromJunction="4way_16" toJunction="4way_36"/>
<trip id="91" depart="51.9974" fromJunction="3way_43" toJunction="4way_24"/>
<trip id="92" depart="52.5688" fromJunction="3way_41" toJunction="3way_21"/>
<trip id="93" depart="53.1402" fromJunction="4way_26" toJunction="3way_34"/>
<trip id="94" depart="53.711600000000004" fromJunction="4way_22" toJunction="4way_31"/>
<trip id="95" depart="54.283" fromJunction="3way_46" toJunction="3way_47"/>
<trip id="96" depart="54.8544" fromJunction="3way_7" toJunction="3way_3"/>
<trip id="97" depart="55.4258" fromJunction="4way_17" toJunction="3way_43"/>
<trip id="98" depart="55.9972" fromJunction="3way_34" toJunction="3way_28"/>
<trip id="99" depart="56.5686" fromJunction="3way_4" toJunction="3way_2"/>
<trip id="100" depart="57.14" fromJunction="4way_8" toJunction="4way_10"/>
<trip id="101" depart="57.711400000000005" fromJunction="4way_12" toJunction="4way_36"/>
<trip id="102" depart="58.2828" fromJunction="3way_41" toJunction="4way_40"/>
<trip id="103" depart="58.8542" fromJunction="3way_46" toJunction="4way_37"/>
<trip id="104" depart="59.4256" fromJunction="4way_38" toJunction="3way_1"/>
<trip id="105" depart="59.997" fromJunction="3way_21" toJunction="3way_43"/>
<trip id="106" depart="60.568400000000004" fromJunction="4way_25" toJunction="4way_16"/>
<trip id="107" depart="61.1398" fromJunction="4way_39" toJunction="4way_30"/>
<trip id="108" depart="61.711200000000005" fromJunction="4way_11" toJunction="3way_45"/>
<trip id="109" depart="62.2826" fromJunction="4way_26" toJunction="3way_34"/>
<trip id="110" depart="62.854" fromJunction="3way_41" toJunction="4way_10"/>
<trip id="111" depart="63.4254" fromJunction="4way_24" toJunction="4way_26"/>
<trip id="112" depart="63.9968" fromJunction="3way_41" toJunction="3way_46"/>
<trip id="113" depart="64.5682" fromJunction="3way_2" toJunction="4way_29"/>
<trip id="114" depart="65.1396" fromJunction="3way_7" toJunction="3way_41"/>
<trip id="115" depart="65.711" fromJunction="4way_8" toJunction="3way_28"/>
<trip id="116" depart="66.2824" fromJunction="4way_16" toJunction="3way_45"/>
<trip id="117" depart="66.8538" fromJunction="3way_13" toJunction="4way_32"/>
<trip id="118" depart="67.4252" fromJunction="3way_13" toJunction="4way_29"/>
<trip id="119" depart="67.9966" fromJunction="3way_21" toJunction="4way_24"/>
<trip id="120" depart="68.568" fromJunction="3way_34" toJunction="4way_9"/>
<trip id="121" depart="69.13940000000001" fromJunction="4way_15" toJunction="3way_20"/>
<trip id="122" depart="69.7108" fromJunction="4way_26" toJunction="3way_28"/>
<trip id="123" depart="70.2822" fromJunction="4way_31" toJunction="4way_38"/>
<trip id="124" depart="70.8536" fromJunction="3way_4" toJunction="4way_12"/>
<trip id="125" depart="71.425" fromJunction="4way_16" toJunction="4way_36"/>
<trip id="126" depart="71.99640000000001" fromJunction="3way_44" toJunction="4way_33"/>
<trip id="127" depart="72.5678" fromJunction="3way_5" toJunction="3way_47"/>
<trip id="128" depart="73.1392" fromJunction="4way_19" toJunction="3way_1"/>
<trip id="129" depart="73.7106" fromJunction="4way_11" toJunction="4way_10"/>
<trip id="130" depart="74.282" fromJunction="4way_16" toJunction="3way_45"/>
<trip id="131" depart="74.85340000000001" fromJunction="4way_15" toJunction="3way_3"/>
<trip id="132" depart="75.4248" fromJunction="4way_39" toJunction="4way_33"/>
<trip id="133" depart="75.9962" fromJunction="4way_33" toJunction="3way_35"/>
<trip id="134" depart="76.5676" fromJunction="4way_26" toJunction="3way_47"/>
<trip id="135" depart="77.139" fromJunction="4way_11" toJunction="4way_26"/>
<trip id="136" depart="77.7104" fromJunction="4way_39" toJunction="4way_30"/>
<trip id="137" depart="78.2818" fromJunction="4way_32" toJunction="3way_44"/>
<trip id="138" depart="78.8532" fromJunction="3way_1" toJunction="4way_23"/>
<trip id="139" depart="79.4246" fromJunction="3way_20" toJunction="3way_35"/>
<trip id="140" depart="79.99600000000001" fromJunction="4way_15" toJunction="4way_40"/>
<trip id="141" depart="80.5674" fromJunction="4way_30" toJunction="4way_22"/>
<trip id="142" depart="81.1388" fromJunction="3way_20" toJunction="3way_28"/>
<trip id="143" depart="81.7102" fromJunction="3way_34" toJunction="4way_18"/>
<trip id="144" depart="82.2816" fromJunction="3way_47" toJunction="4way_29"/>
<trip id="145" depart="82.85300000000001" fromJunction="4way_32" toJunction="3way_5"/>
<trip id="146" depart="83.4244" fromJunction="4way_38" toJunction="4way_12"/>
<trip id="147" depart="83.9958" fromJunction="3way_4" toJunction="3way_43"/>
<trip id="148" depart="84.5672" fromJunction="3way_47" toJunction="3way_14"/>
<trip id="149" depart="85.1386" fromJunction="3way_3" toJunction="3way_13"/>
<trip id="150" depart="85.71000000000001" fromJunction="3way_1" toJunction="4way_24"/>
<trip id="151" depart="86.2814" fromJunction="3way_20" toJunction="4way_38"/>
<trip id="152" depart="86.8528" fromJunction="3way_5" toJunction="3way_4"/>
<trip id="153" depart="87.4242" fromJunction="3way_46" toJunction="4way_10"/>
<trip id="154" depart="87.9956" fromJunction="4way_9" toJunction="3way_14"/>
<trip id="155" depart="88.56700000000001" fromJunction="4way_24" toJunction="4way_32"/>
<trip id="156" depart="89.1384" fromJunction="3way_13" toJunction="3way_45"/>
<trip id="157" depart="89.7098" fromJunction="3way_44" toJunction="3way_3"/>
<trip id="158" depart="90.2812" fromJunction="4way_8" toJunction="3way_46"/>
<trip id="159" depart="90.85260000000001" fromJunction="4way_17" toJunction="4way_10"/>
<trip id="160" depart="91.424" fromJunction="3way_21" toJunction="3way_45"/>
<trip id="161" depart="91.9954" fromJunction="4way_11" toJunction="3way_34"/>
<trip id="162" depart="92.5668" fromJunction="4way_17" toJunction="3way_3"/>
<trip id="163" depart="93.1382" fromJunction="4way_38" toJunction="4way_11"/>
<trip id="164" depart="93.70960000000001" fromJunction="3way_28" toJunction="3way_46"/>
<trip id="165" depart="94.281" fromJunction="3way_45" toJunction="4way_16"/>
<trip id="166" depart="94.8524" fromJunction="3way_34" toJunction="3way_28"/>
<trip id="167" depart="95.4238" fromJunction="3way_3" toJunction="4way_8"/>
<trip id="168" depart="95.9952" fromJunction="3way_4" toJunction="4way_11"/>
<trip id="169" depart="96.56660000000001" fromJunction="3way_44" toJunction="4way_29"/>
<trip id="170" depart="97.138" fromJunction="4way_33" toJunction="4way_9"/>
<trip id="171" depart="97.7094" fromJunction="3way_2" toJunction="4way_37"/>
<trip id="172" depart="98.2808" fromJunction="4way_22" toJunction="3way_7"/>
<trip id="173" depart="98.8522" fromJunction="4way_10" toJunction="4way_36"/>
<trip id="174" depart="99.42360000000001" fromJunction="3way_13" toJunction="3way_45"/>
<trip id="175" depart="99.995" fromJunction="4way_33" toJunction="3way_21"/>
<trip id="176" depart="100.5664" fromJunction="4way_12" toJunction="3way_34"/>
<trip id="177" depart="101.1378" fromJunction="4way_8" toJunction="4way_36"/>
<trip id="178" depart="101.70920000000001" fromJunction="4way_8" toJunction="4way_39"/>
<trip id="179" depart="102.2806" fromJunction="3way_21" toJunction="4way_24"/>
<trip id="180" depart="102.852" fromJunction="4way_17" toJunction="4way_12"/>
<trip id="181" depart="103.4234" fromJunction="3way_43" toJunction="4way_17"/>
<trip id="182" depart="103.9948" fromJunction="4way_30" toJunction="4way_38"/>
<trip id="183" depart="104.56620000000001" fromJunction="3way_27" toJunction="3way_47"/>
<trip id="184" depart="105.1376" fromJunction="4way_33" toJunction="4way_11"/>
<trip id="185" depart="105.709" fromJunction="4way_16" toJunction="4way_8"/>
<trip id="186" depart="106.2804" fromJunction="4way_8" toJunction="4way_32"/>
<trip id="187" depart="106.8518" fromJunction="4way_9" toJunction="4way_26"/>
<trip id="188" depart="107.42320000000001" fromJunction="4way_12" toJunction="4way_18"/>
<trip id="189" depart="107.9946" fromJunction="3way_27" toJunction="4way_18"/>
<trip id="190" depart="108.566" fromJunction="3way_21" toJunction="4way_30"/>
<trip id="191" depart="109.1374" fromJunction="3way_7" toJunction="3way_3"/>
<trip id="192" depart="109.7088" fromJunction="4way_32" toJunction="3way_46"/>
<trip id="193" depart="110.28020000000001" fromJunction="4way_33" toJunction="3way_2"/>
<trip id="194" depart="110.8516" fromJunction="3way_28" toJunction="3way_35"/>
<trip id="195" depart="111.423" fromJunction="3way_34" toJunction="3way_1"/>
<trip id="196" depart="111.9944" fromJunction="4way_19" toJunction="3way_14"/>
<trip id="197" depart="112.56580000000001" fromJunction="4way_26" toJunction="3way_5"/>
<trip id="198" depart="113.1372" fromJunction="4way_8" toJunction="4way_39"/>
<trip id="199" depart="113.7086" fromJunction="3way_47" toJunction="3way_43"/>
<trip id="200" depart="114.28" fromJunction="3way_2" toJunction="4way_23"/>
<trip id="201" depart="114.8514" fromJunction="3way_7" toJunction="3way_1"/>
<trip id="202" depart="115.42280000000001" fromJunction="3way_46" toJunction="3way_4"/>
<trip id="203" depart="115.9942" fromJunction="3way_46" toJunction="3way_41"/>
<trip id="204" depart="116.5656" fromJunction="3way_1" toJunction="3way_13"/>
<trip id="205" depart="117.137" fromJunction="4way_23" toJunction="3way_13"/>
<trip id="206" depart="117.7084" fromJunction="4way_40" toJunction="4way_33"/>
<trip id="207" depart="118.27980000000001" fromJunction="3way_27" toJunction="3way_14"/>
<trip id="208" depart="118.8512" fromJunction="4way_22" toJunction="4way_30"/>
<trip id="209" depart="119.4226" fromJunction="3way_3" toJunction="4way_40"/>
<trip id="210" depart="119.994" fromJunction="3way_45" toJunction="4way_11"/>
<trip id="211" depart="120.56540000000001" fromJunction="4way_37" toJunction="3way_47"/>
<trip id="212" depart="121.13680000000001" fromJunction="4way_37" toJunction="3way_46"/>
<trip id="213" depart="121.7082" fromJunction="3way_7" toJunction="4way_29"/>
<trip id="214" depart="122.2796" fromJunction="3way_45" toJunction="4way_36"/>
<trip id="215" depart="122.851" fromJunction="3way_14" toJunction="4way_17"/>
<trip id="216" depart="123.42240000000001" fromJunction="4way_25" toJunction="3way_28"/>
<trip id="217" depart="123.99380000000001" fromJunction="3way_3" toJunction="4way_19"/>
<trip id="218" depart="124.5652" fromJunction="3way_35" toJunction="3way_47"/>
<trip id="219" depart="125.1366" fromJunction="4way_40" toJunction="4way_18"/>
<trip id="220" depart="125.708" fromJunction="4way_12" toJunction="4way_33"/>
<trip id="221" depart="126.27940000000001" fromJunction="4way_40" toJunction="3way_44"/>
<trip id="222" depart="126.8508" fromJunction="3way_5" toJunction="3way_46"/>
<trip id="223" depart="127.4222" fromJunction="3way_47" toJunction="4way_26"/>
<trip id="224" depart="127.9936" fromJunction="3way_3" toJunction="4way_17"/>
<trip id="225" depart="128.565" fromJunction="4way_39" toJunction="4way_24"/>
<trip id="226" depart="129.1364" fromJunction="3way_21" toJunction="3way_45"/>
<trip id="227" depart="129.7078" fromJunction="4way_31" toJunction="3way_28"/>
<trip id="228" depart="130.2792" fromJunction="3way_27" toJunction="3way_47"/>
<trip id="229" depart="130.85060000000001" fromJunction="3way_44" toJunction="4way_8"/>
<trip id="230" depart="131.422" fromJunction="3way_47" toJunction="4way_25"/>
<trip id="231" depart="131.9934" fromJunction="4way_26" toJunction="4way_22"/>
<trip id="232" depart="132.5648" fromJunction="4way_39" toJunction="4way_30"/>
<trip id="233" depart="133.1362" fromJunction="4way_31" toJunction="4way_26"/>
<trip id="234" depart="133.7076" fromJunction="4way_33" toJunction="4way_17"/>
<trip id="235" depart="134.279" fromJunction="4way_8" toJunction="4way_40"/>
<trip id="236" depart="134.8504" fromJunction="3way_44" toJunction="3way_4"/>
<trip id="237" depart="135.4218" fromJunction="3way_14" toJunction="3way_20"/>
<trip id="238" depart="135.9932" fromJunction="4way_23" toJunction="3way_13"/>
<trip id="239" depart="136.5646" fromJunction="4way_12" toJunction="3way_21"/>
<trip id="240" depart="137.136" fromJunction="4way_36" toJunction="4way_33"/>
<trip id="241" depart="137.7074" fromJunction="4way_16" toJunction="3way_45"/>
<trip id="242" depart="138.27880000000002" fromJunction="3way_14" toJunction="4way_12"/>
<trip id="243" depart="138.8502" fromJunction="3way_45" toJunction="4way_36"/>
<trip id="244" depart="139.4216" fromJunction="3way_14" toJunction="4way_8"/>
<trip id="245" depart="139.993" fromJunction="4way_22" toJunction="3way_46"/>
<trip id="246" depart="140.5644" fromJunction="3way_28" toJunction="3way_44"/>
<trip id="247" depart="141.13580000000002" fromJunction="4way_31" toJunction="4way_29"/>
<trip id="248" depart="141.7072" fromJunction="4way_19" toJunction="3way_35"/>
<trip id="249" depart="142.2786" fromJunction="3way_3" toJunction="4way_32"/>
<trip id="250" depart="142.85" fromJunction="4way_8" toJunction="3way_46"/>
<trip id="251" depart="143.4214" fromJunction="3way_35" toJunction="3way_5"/>
<trip id="252" depart="143.99280000000002" fromJunction="4way_10" toJunction="4way_31"/>
<trip id="253" depart="144.5642" fromJunction="4way_17" toJunction="4way_30"/>
<trip id="254" depart="145.1356" fromJunction="3way_35" toJunction="3way_41"/>
<trip id="255" depart="145.707" fromJunction="4way_39" toJunction="4way_10"/>
<trip id="256" depart="146.2784" fromJunction="3way_45" toJunction="4way_36"/>
<trip id="257" depart="146.84980000000002" fromJunction="4way_17" toJunction="3way_2"/>
<trip id="258" depart="147.4212" fromJunction="3way_28" toJunction="3way_1"/>
<trip id="259" depart="147.9926" fromJunction="4way_19" toJunction="4way_29"/>
<trip id="260" depart="148.564" fromJunction="3way_14" toJunction="3way_5"/>
<trip id="261" depart="149.1354" fromJunction="3way_35" toJunction="3way_2"/>
<trip id="262" depart="149.70680000000002" fromJunction="3way_45" toJunction="4way_30"/>
<trip id="263" depart="150.2782" fromJunction="3way_13" toJunction="3way_41"/>
<trip id="264" depart="150.8496" fromJunction="4way_17" toJunction="4way_9"/>
<trip id="265" depart="151.421" fromJunction="4way_26" toJunction="4way_10"/>
<trip id="266" depart="151.9924" fromJunction="4way_37" toJunction="3way_1"/>
<trip id="267" depart="152.56380000000001" fromJunction="4way_16" toJunction="4way_23"/>
<trip id="268" depart="153.1352" fromJunction="3way_1" toJunction="4way_33"/>
<trip id="269" depart="153.7066" fromJunction="4way_18" toJunction="4way_17"/>
<trip id="270" depart="154.278" fromJunction="3way_35" toJunction="4way_22"/>
<trip id="271" depart="154.8494" fromJunction="3way_5" toJunction="4way_11"/>
<trip id="272" depart="155.4208" fromJunction="4way_29" toJunction="3way_7"/>
<trip id="273" depart="155.9922" fromJunction="3way_5" toJunction="4way_17"/>
<trip id="274" depart="156.5636" fromJunction="3way_14" toJunction="3way_47"/>
<trip id="275" depart="157.13500000000002" fromJunction="4way_39" toJunction="4way_30"/>
<trip id="276" depart="157.7064" fromJunction="3way_20" toJunction="4way_23"/>
<trip id="277" depart="158.2778" fromJunction="4way_39" toJunction="4way_40"/>
<trip id="278" depart="158.8492" fromJunction="4way_19" toJunction="4way_22"/>
<trip id="279" depart="159.4206" fromJunction="4way_19" toJunction="4way_36"/>
<trip id="280" depart="159.99200000000002" fromJunction="4way_33" toJunction="4way_25"/>
<trip id="281" depart="160.5634" fromJunction="3way_2" toJunction="4way_19"/>
<trip id="282" depart="161.1348" fromJunction="3way_21" toJunction="3way_27"/>
<trip id="283" depart="161.7062" fromJunction="3way_44" toJunction="4way_26"/>
<trip id="284" depart="162.2776" fromJunction="4way_39" toJunction="3way_27"/>
<trip id="285" depart="162.84900000000002" fromJunction="4way_12" toJunction="4way_8"/>
<trip id="286" depart="163.4204" fromJunction="4way_37" toJunction="3way_27"/>
<trip id="287" depart="163.9918" fromJunction="3way_4" toJunction="3way_7"/>
<trip id="288" depart="164.5632" fromJunction="3way_46" toJunction="4way_17"/>
<trip id="289" depart="165.1346" fromJunction="3way_3" toJunction="3way_2"/>
<trip id="290" depart="165.70600000000002" fromJunction="4way_12" toJunction="3way_3"/>
<trip id="291" depart="166.2774" fromJunction="4way_12" toJunction="4way_31"/>
<trip id="292" depart="166.8488" fromJunction="4way_29" toJunction="4way_10"/>
<trip id="293" depart="167.4202" fromJunction="4way_40" toJunction="3way_44"/>
<trip id="294" depart="167.9916" fromJunction="4way_15" toJunction="3way_28"/>
<trip id="295" depart="168.56300000000002" fromJunction="4way_40" toJunction="3way_21"/>
<trip id="296" depart="169.1344" fromJunction="3way_43" toJunction="3way_27"/>
<trip id="297" depart="169.7058" fromJunction="3way_3" toJunction="4way_10"/>
<trip id="298" depart="170.2772" fromJunction="4way_15" toJunction="4way_23"/>
<trip id="299" depart="170.8486" fromJunction="3way_47" toJunction="3way_45"/>
<trip id="300" depart="171.42000000000002" fromJunction="3way_28" toJunction="4way_29"/>
<trip id="301" depart="171.9914" fromJunction="3way_35" toJunction="4way_8"/>
<trip id="302" depart="172.5628" fromJunction="3way_20" toJunction="4way_33"/>
<trip id="303" depart="173.1342" fromJunction="3way_35" toJunction="3way_5"/>
<trip id="304" depart="173.7056" fromJunction="4way_37" toJunction="4way_16"/>
<trip id="305" depart="174.27700000000002" fromJunction="4way_40" toJunction="3way_21"/>
<trip id="306" depart="174.8484" fromJunction="4way_24" toJunction="3way_35"/>
<trip id="307" depart="175.4198" fromJunction="4way_18" toJunction="4way_30"/>
<trip id="308" depart="175.9912" fromJunction="4way_12" toJunction="4way_33"/>
<trip id="309" depart="176.5626" fromJunction="4way_17" toJunction="4way_38"/>
<trip id="310" depart="177.13400000000001" fromJunction="3way_20" toJunction="3way_35"/>
<trip id="311" depart="177.7054" fromJunction="3way_47" toJunction="3way_3"/>
<trip id="312" depart="178.2768" fromJunction="4way_29" toJunction="3way_7"/>
<trip id="313" depart="178.84820000000002" fromJunction="4way_33" toJunction="4way_38"/>
<trip id="314" depart="179.4196" fromJunction="3way_5" toJunction="3way_13"/>
<trip id="315" depart="179.991" fromJunction="4way_31" toJunction="4way_16"/>
<trip id="316" depart="180.5624" fromJunction="4way_26" toJunction="4way_32"/>
<trip id="317" depart="181.1338" fromJunction="3way_21" toJunction="4way_40"/>
<trip id="318" depart="181.70520000000002" fromJunction="3way_20" toJunction="3way_21"/>
<trip id="319" depart="182.2766" fromJunction="4way_37" toJunction="4way_10"/>
<trip id="320" depart="182.848" fromJunction="3way_5" toJunction="4way_32"/>
<trip id="321" depart="183.4194" fromJunction="4way_16" toJunction="4way_22"/>
<trip id="322" depart="183.9908" fromJunction="3way_27" toJunction="3way_47"/>
<trip id="323" depart="184.56220000000002" fromJunction="3way_3" toJunction="4way_32"/>
<trip id="324" depart="185.1336" fromJunction="3way_13" toJunction="4way_15"/>
<trip id="325" depart="185.705" fromJunction="4way_40" toJunction="4way_8"/>
<trip id="326" depart="186.2764" fromJunction="4way_32" toJunction="3way_7"/>
<trip id="327" depart="186.8478" fromJunction="3way_45" toJunction="3way_13"/>
<trip id="328" depart="187.41920000000002" fromJunction="3way_21" toJunction="3way_14"/>
<trip id="329" depart="187.9906" fromJunction="3way_35" toJunction="4way_10"/>
<trip id="330" depart="188.562" fromJunction="4way_30" toJunction="4way_24"/>
<trip id="331" depart="189.1334" fromJunction="3way_7" toJunction="3way_21"/>
<trip id="332" depart="189.7048" fromJunction="3way_4" toJunction="4way_23"/>
<trip id="333" depart="190.27620000000002" fromJunction="4way_37" toJunction="4way_25"/>
<trip id="334" depart="190.8476" fromJunction="4way_36" toJunction="4way_24"/>
<trip id="335" depart="191.419" fromJunction="3way_14" toJunction="3way_5"/>
<trip id="336" depart="191.9904" fromJunction="3way_43" toJunction="3way_14"/>
<trip id="337" depart="192.5618" fromJunction="4way_31" toJunction="3way_2"/>
<trip id="338" depart="193.13320000000002" fromJunction="4way_23" toJunction="3way_5"/>
<trip id="339" depart="193.7046" fromJunction="4way_30" toJunction="4way_17"/>
<trip id="340" depart="194.276" fromJunction="3way_5" toJunction="4way_33"/>
<trip id="341" depart="194.8474" fromJunction="3way_2" toJunction="4way_39"/>
<trip id="342" depart="195.4188" fromJunction="3way_14" toJunction="4way_36"/>
<trip id="343" depart="195.99020000000002" fromJunction="3way_28" toJunction="4way_29"/>
<trip id="344" depart="196.5616" fromJunction="3way_1" toJunction="3way_34"/>
<trip id="345" depart="197.133" fromJunction="4way_25" toJunction="4way_29"/>
<trip id="346" depart="197.7044" fromJunction="3way_47" toJunction="3way_28"/>
<trip id="347" depart="198.2758" fromJunction="3way_5" toJunction="3way_41"/>
<trip id="348" depart="198.84720000000002" fromJunction="3way_3" toJunction="3way_46"/>
<trip id="349" depart="199.4186" fromJunction="4way_32" toJunction="3way_3"/>
<trip id="350" depart="199.99" fromJunction="4way_9" toJunction="3way_27"/>
<trip id="351" depart="200.56140000000002" fromJunction="4way_8" toJunction="4way_38"/>
<trip id="352" depart="201.1328" fromJunction="3way_34" toJunction="3way_20"/>
<trip id="353" depart="201.70420000000001" fromJunction="4way_29" toJunction="3way_7"/>
<trip id="354" depart="202.2756" fromJunction="4way_11" toJunction="3way_35"/>
<trip id="355" depart="202.847" fromJunction="4way_19" toJunction="4way_31"/>
<trip id="356" depart="203.41840000000002" fromJunction="4way_12" toJunction="3way_2"/>
<trip id="357" depart="203.9898" fromJunction="4way_39" toJunction="3way_21"/>
<trip id="358" depart="204.5612" fromJunction="4way_40" toJunction="4way_17"/>
<trip id="359" depart="205.1326" fromJunction="3way_28" toJunction="4way_38"/>
<trip id="360" depart="205.704" fromJunction="3way_28" toJunction="4way_22"/>
<trip id="361" depart="206.27540000000002" fromJunction="3way_46" toJunction="3way_28"/>
<trip id="362" depart="206.8468" fromJunction="4way_10" toJunction="4way_22"/>
<trip id="363" depart="207.4182" fromJunction="4way_29" toJunction="3way_45"/>
<trip id="364" depart="207.9896" fromJunction="3way_27" toJunction="3way_13"/>
<trip id="365" depart="208.561" fromJunction="4way_33" toJunction="3way_3"/>
<trip id="366" depart="209.13240000000002" fromJunction="3way_34" toJunction="3way_1"/>
<trip id="367" depart="209.7038" fromJunction="3way_4" toJunction="4way_23"/>
<trip id="368" depart="210.2752" fromJunction="4way_24" toJunction="4way_39"/>
<trip id="369" depart="210.8466" fromJunction="4way_22" toJunction="4way_33"/>
<trip id="370" depart="211.418" fromJunction="4way_36" toJunction="3way_44"/>
<trip id="371" depart="211.98940000000002" fromJunction="4way_29" toJunction="4way_19"/>
<trip id="372" depart="212.5608" fromJunction="4way_39" toJunction="3way_45"/>
<trip id="373" depart="213.1322" fromJunction="3way_1" toJunction="3way_28"/>
<trip id="374" depart="213.7036" fromJunction="3way_43" toJunction="3way_46"/>