<routes xmlns:xsi="http://www.w3.org/2001/XMLSchema-instance" xsi:noNamespaceSchemaLocation="http://sumo.dlr.de/xsd/routes_file.xsd">
<trip id="0" depart="0.0" fromJunction="4way_55" toJunction="4way_53"/>
<trip id="1" depart="0.23" fromJunction="4way_53" toJunction="4way_24"/>
<trip id="2" depart="0.46" fromJunction="4way_74" toJunction="4way_12"/>
<trip id="3" depart="0.6900000000000001" fromJunction="4way_67" toJunction="4way_32"/>
<trip id="4" depart="0.92" fromJunction="4way_51" toJunction="4way_58"/>
<trip id="5" depart="1.1500000000000001" fromJunction="4way_33" toJunction="4way_56"/>
<trip id="6" depart="1.3800000000000001" fromJunction="4way_18" toJunction="4way_73"/>
<trip id="7" depart="1.61" fromJunction="3way_19" toJunction="3way_7"/>
<trip id="8" depart="1.84" fromJunction="4way_86" toJunction="3way_2"/>
<trip id="9" depart="2.0700000000000003" fromJunction="4way_47" toJunction="4way_36"/>
<trip id="10" depart="2.3000000000000003" fromJunction="4way_56" toJunction="4way_68"/>
<trip id="11" depart="2.5300000000000002" fromJunction="4way_36" toJunction="4way_52"/>
<trip id="12" depart="2.7600000000000002" fromJunction="4way_64" toJunction="3way_49"/>
<trip id="13" depart="2.99" fromJunction="4way_38" toJunction="3way_69"/>
<trip id="14" depart="3.22" fromJunction="4way_81" toJunction="4way_33"/>
<trip id="15" depart="3.45" fromJunction="4way_36" toJunction="3way_70"/>
<trip id="16" depart="3.68" fromJunction="4way_73" toJunction="4way_42"/>
<trip id="17" depart="3.91" fromJunction="4way_44" toJunction="3way_2"/>
<trip id="18" depart="4.140000000000001" fromJunction="4way_44" toJunction="4way_34"/>
<trip id="19" depart="4.37" fromJunction="4way_25" toJunction="4way_38"/>
<trip id="20" depart="4.6000000000000005" fromJunction="4way_22" toJunction="4way_31"/>
<trip id="21" depart="4.83" fromJunction="3way_6" toJunction="4way_35"/>
<trip id="22" depart="5.0600000000000005" fromJunction="3way_59" toJunction="3way_94"/>
<trip id="23" depart="5.29" fromJunction="4way_31" toJunction="3way_20"/>
<trip id="24" depart="5.5200000000000005" fromJunction="4way_32" toJunction="4way_73"/>
<trip id="25" depart="5.75" fromJunction="3way_29" toJunction="4way_78"/>
<trip id="26" depart="5.98" fromJunction="3way_89" toJunction="3way_94"/>
<trip id="27" depart="6.21" fromJunction="3way_80" toJunction="4way_74"/>
<trip id="28" depart="6.44" fromJunction="3way_91" toJunction="4way_52"/>
<trip id="29" depart="6.67" fromJunction="3way_39" toJunction="3way_89"/>
<trip id="30" depart="6.9" fromJunction="3way_69" toJunction="4way_84"/>
<trip id="31" depart="7.13" fromJunction="4way_41" toJunction="3way_96"/>
<trip id="32" depart="7.36" fromJunction="3way_29" toJunction="4way_76"/>
<trip id="33" depart="7.590000000000001" fromJunction="3way_29" toJunction="4way_17"/>
<trip id="34" depart="7.82" fromJunction="4way_52" toJunction="4way_68"/>
<trip id="35" depart="8.05" fromJunction="4way_34" toJunction="4way_68"/>
<trip id="36" depart="8.280000000000001" fromJunction="3way_4" toJunction="4way_75"/>
<trip id="37" depart="8.51" fromJunction="3way_49" toJunction="3way_50"/>
<trip id="38" depart="8.74" fromJunction="3way_49" toJunction="3way_40"/>
<trip id="39" depart="8.97" fromJunction="4way_81" toJunction="3way_20"/>
<trip id="40" depart="9.200000000000001" fromJunction="4way_35" toJunction="3way_7"/>
<trip id="41" depart="9.43" fromJunction="3way_70" toJunction="4way_73"/>
<trip id="42" depart="9.66" fromJunction="3way_29" toJunction="4way_33"/>
<trip id="43" depart="9.89" fromJunction="4way_28" toJunction="4way_83"/>
<trip id="44" depart="10.120000000000001" fromJunction="4way_15" toJunction="3way_20"/>
<trip id="45" depart="10.35" fromJunction="4way_55" toJunction="3way_59"/>
<trip id="46" depart="10.58" fromJunction="3way_97" toJunction="3way_50"/>
<trip id="47" depart="10.81" fromJunction="3way_2" toJunction="4way_14"/>
<trip id="48" depart="11.040000000000001" fromJunction="3way_1" toJunction="4way_86"/>
<trip id="49" depart="11.270000000000001" fromJunction="3way_70" toJunction="4way_25"/>
<trip id="50" depart="11.5" fromJunction="4way_58" toJunction="4way_75"/>
<trip id="51" depart="11.73" fromJunction="4way_83" toJunction="3way_91"/>
<trip id="52" depart="11.96" fromJunction="4way_73" toJunction="4way_14"/>
<trip id="53" depart="12.190000000000001" fromJunction="4way_48" toJunction="3way_93"/>
<trip id="54" depart="12.42" fromJunction="4way_27" toJunction="4way_32"/>
<trip id="55" depart="12.65" fromJunction="3way_40" toJunction="4way_45"/>
<trip id="56" depart="12.88" fromJunction="4way_71" toJunction="4way_76"/>
<trip id="57" depart="13.110000000000001" fromJunction="4way_83" toJunction="4way_57"/>
<trip id="58" depart="13.34" fromJunction="4way_35" toJunction="4way_57"/>
<trip id="59" depart="13.57" fromJunction="4way_13" toJunction="4way_65"/>
<trip id="60" depart="13.8" fromJunction="4way_64" toJunction="4way_48"/>
<trip id="61" depart="14.030000000000001" fromJunction="4way_34" toJunction="4way_12"/>
<trip id="62" depart="14.26" fromJunction="3way_40" toJunction="3way_2"/>
<trip id="63" depart="14.49" fromJunction="3way_50" toJunction="4way_84"/>
<trip id="64" depart="14.72" fromJunction="4way_22" toJunction="4way_44"/>
<trip id="65" depart="14.950000000000001" fromJunction="3way_40" toJunction="3way_69"/>
<trip id="66" depart="15.180000000000001" fromJunction="4way_14" toJunction="4way_73"/>
<trip id="67" depart="15.41" fromJunction="4way_74" toJunction="4way_83"/>
<trip id="68" depart="15.64" fromJunction="4way_22" toJunction="4way_74"/>
<trip id="69" depart="15.870000000000001" fromJunction="4way_41" toJunction="4way_77"/>
<trip id="70" depart="16.1" fromJunction="4way_67" toJunction="4way_22"/>
<trip id="71" depart="16.330000000000002" fromJunction="4way_45" toJunction="4way_66"/>
<trip id="72" depart="16.560000000000002" fromJunction="4way_18" toJunction="3way_29"/>
<trip id="73" depart="16.79" fromJunction="4way_88" toJunction="4way_55"/>
<trip id="74" depart="17.02" fromJunction="4way_47" toJunction="3way_79"/>
<trip id="75" depart="17.25" fromJunction="4way_44" toJunction="3way_89"/>
<trip id="76" depart="17.48" fromJunction="4way_27" toJunction="3way_49"/>
<trip id="77" depart="17.71" fromJunction="4way_73" toJunction="4way_66"/>
<trip id="78" depart="17.94" fromJunction="3way_7" toJunction="4way_81"/>
<trip id="79" depart="18.17" fromJunction="4way_42" toJunction="4way_35"/>
<trip id="80" depart="18.400000000000002" fromJunction="4way_47" toJunction="4way_65"/>
<trip id="81" depart="18.630000000000003" fromJunction="4way_37" toJunction="4way_68"/>
<trip id="82" depart="18.86" fromJunction="4way_31" toJunction="3way_2"/>
<trip id="83" depart="19.09" fromJunction="3way_98" toJunction="4way_75"/>
<trip id="84" depart="19.32" fromJunction="3way_6" toJunction="4way_33"/>
<trip id="85" depart="19.55" fromJunction="3way_2" toJunction="3way_95"/>
<trip id="86" depart="19.78" fromJunction="3way_93" toJunction="4way_56"/>
<trip id="87" depart="20.01" fromJunction="4way_28" toJunction="4way_21"/>
<trip id="88" depart="20.240000000000002" fromJunction="3way_4" toJunction="4way_45"/>
<trip id="89" depart="20.470000000000002" fromJunction="4way_44" toJunction="3way_89"/>
<trip id="90" depart="20.7" fromJunction="3way_92" toJunction="4way_83"/>
<trip id="91" depart="20.93" fromJunction="4way_34" toJunction="4way_28"/>
<trip id="92" depart="21.16" fromJunction="4way_14" toJunction="4way_43"/>
<trip id="93" depart="21.39" fromJunction="3way_30" toJunction="4way_75"/>
<trip id="94" depart="21.62" fromJunction="3way_94" toJunction="4way_71"/>
<trip id="95" depart="21.85" fromJunction="4way_38" toJunction="3way_97"/>
<trip id="96" depart="22.080000000000002" fromJunction="4way_82" toJunction="4way_75"/>
<trip id="97" depart="22.310000000000002" fromJunction="3way_80" toJunction="3way_93"/>
<trip id="98" depart="22.540000000000003" fromJunction="4way_22" toJunction="3way_6"/>
<trip id="99" depart="22.77" fromJunction="4way_35" toJunction="3way_30"/>
<trip id="100" depart="23.0" fromJunction="3way_97" toJunction="4way_51"/>
<trip id="101" depart="23.23" fromJunction="3way_7" toJunction="3way_3"/>
<trip id="102" depart="23.46" fromJunction="4way_42" toJunction="4way_25"/>
<trip id="103" depart="23.69" fromJunction="4way_77" toJunction="4way_43"/>
<trip id="104" depart="23.92" fromJunction="3way_94" toJunction="4way_88"/>
<trip id="105" depart="24.150000000000002" fromJunction="3way_70" toJunction="4way_84"/>
<trip id="106" depart="24.380000000000003" fromJunction="4way_16" toJunction="3way_2"/>
<trip id="107" depart="24.61" fromJunction="4way_51" toJunction="3way_20"/>
<trip id="108" depart="24.84" fromJunction="4way_86" toJunction="4way_14"/>
<trip id="109" depart="25.07" fromJunction="4way_47" toJunction="4way_54"/>
<trip id="110" depart="25.3" fromJunction="4way_56" toJunction="3way_60"/>
<trip id="111" depart="25.53" fromJunction="4way_48" toJunction="3way_97"/>
<trip id="112" depart="25.76" fromJunction="3way_94" toJunction="4way_25"/>
<trip id="113" depart="25.990000000000002" fromJunction="4way_75" toJunction="4way_38"/>
<trip id="114" depart="26.220000000000002" fromJunction="3way_94" toJunction="3way_80"/>
<trip id="115" depart="26.450000000000003" fromJunction="3way_3" toJunction="4way_23"/>
<trip id="116" depart="26.68" fromJunction="4way_12" toJunction="3way_95"/>
<trip id="117" depart="26.91" fromJunction="4way_52" toJunction="4way_41"/>
<trip id="118" depart="27.14" fromJunction="4way_14" toJunction="3way_60"/>
<trip id="119" depart="27.37" fromJunction="3way_49" toJunction="4way_37"/>
<trip id="120" depart="27.6" fromJunction="3way_59" toJunction="4way_23"/>
<trip id="121" depart="27.830000000000002" fromJunction="4way_71" toJunction="4way_55"/>
<trip id="122" depart="28.060000000000002" fromJunction="3way_97" toJunction="4way_73"/>
<trip id="123" depart="28.290000000000003" fromJunction="4way_72" toJunction="3way_69"/>
<trip id="124" depart="28.52" fromJunction="4way_38" toJunction="4way_31"/>
<trip id="125" depart="28.75" fromJunction="4way_85" toJunction="4way_26"/>
<trip id="126" depart="28.98" fromJunction="3way_19" toJunction="4way_77"/>
<trip id="127" depart="29.21" fromJunction="4way_14" toJunction="4way_63"/>
<trip id="128" depart="29.44" fromJunction="3way_40" toJunction="4way_58"/>
<trip id="129" depart="29.67" fromJunction="3way_29" toJunction="3way_91"/>
<trip id="130" depart="29.900000000000002" fromJunction="4way_28" toJunction="3way_2"/>
<trip id="131" depart="30.130000000000003" fromJunction="4way_46" toJunction="4way_15"/>
<trip id="132" depart="30.360000000000003" fromJunction="4way_14" toJunction="3way_50"/>
<trip id="133" depart="30.59" fromJunction="4way_72" toJunction="3way_7"/>
<trip id="134" depart="30.82" fromJunction="4way_57" toJunction="4way_68"/>
<trip id="135" depart="31.05" fromJunction="4way_58" toJunction="4way_11"/>
<trip id="136" depart="31.28" fromJunction="4way_48" toJunction="3way_92"/>
<trip id="137" depart="31.51" fromJunction="4way_56" toJunction="4way_38"/>
<trip id="138" depart="31.740000000000002" fromJunction="4way_47" toJunction="4way_54"/>
<trip id="139" depart="31.970000000000002" fromJunction="4way_27" toJunction="3way_40"/>
<trip id="140" depart="32.2" fromJunction="3way_2" toJunction="4way_44"/>
<trip id="141" depart="32.43" fromJunction="3way_79" toJunction="4way_21"/>
<trip id="142" depart="32.660000000000004" fromJunction="4way_62" toJunction="4way_78"/>
<trip id="143" depart="32.89" fromJunction="4way_64" toJunction="4way_82"/>
<trip id="144" depart="33.120000000000005" fromJunction="3way_69" toJunction="4way_41"/>
<trip id="145" depart="33.35" fromJunction="3way_96" toJunction="4way_76"/>
<trip id="146" depart="33.58" fromJunction="3way_93" toJunction="4way_23"/>
<trip id="147" depart="33.81" fromJunction="4way_37" toJunction="3way_29"/>
<trip id="148" depart="34.04" fromJunction="4way_58" toJunction="4way_68"/>
<trip id="149" depart="34.27" fromJunction="4way_36" toJunction="4way_87"/>
<trip id="150" depart="34.5" fromJunction="3way_8" toJunction="3way_10"/>
<trip id="151" depart="34.730000000000004" fromJunction="3way_92" toJunction="4way_81"/>
<trip id="152" depart="34.96" fromJunction="3way_6" toJunction="3way_59"/>
<trip id="153" depart="35.190000000000005" fromJunction="3way_2" toJunction="4way_65"/>
<trip id="154" depart="35.42" fromJunction="3way_79" toJunction="4way_26"/>
<trip id="155" depart="35.65" fromJunction="3way_19" toJunction="3way_8"/>
<trip id="156" depart="35.88" fromJunction="3way_91" toJunction="4way_15"/>
<trip id="157" depart="36.11" fromJunction="4way_63" toJunction="4way_12"/>
<trip id="158" depart="36.34" fromJunction="4way_65" toJunction="4way_37"/>
<trip id="159" depart="36.57" fromJunction="3way_59" toJunction="3way_70"/>
<trip id="160" depart="36.800000000000004" fromJunction="3way_40" toJunction="3way_6"/>
<trip id="161" depart="37.03" fromJunction="4way_42" toJunction="3way_70"/>
<trip id="162" depart="37.260000000000005" fromJunction="4way_35" toJunction="4way_25"/>
<trip id="163" depart="37.49" fromJunction="4way_51" toJunction="3way_50"/>
<trip id="164" depart="37.72" fromJunction="4way_46" toJunction="3way_97"/>
<trip id="165" depart="37.95" fromJunction="4way_35" toJunction="3way_6"/>
<trip id="166" depart="38.18" fromJunction="4way_41" toJunction="3way_80"/>
<trip id="167" depart="38.410000000000004" fromJunction="3way_60" toJunction="4way_14"/>
<trip id="168" depart="38.64" fromJunction="3way_96" toJunction="4way_41"/>
<trip id="169" depart="38.870000000000005" fromJunction="3way_5" toJunction="4way_52"/>
<trip id="170" depart="39.1" fromJunction="3way_8" toJunction="4way_56"/>
<trip id="171" depart="39.33" fromJunction="3way_30" toJunction="4way_23"/>
<trip id="172" depart="39.56" fromJunction="4way_58" toJunction="4way_83"/>
<trip id="173" depart="39.79" fromJunction="3way_4" toJunction="4way_64"/>
<trip id="174" depart="40.02" fromJunction="4way_13" toJunction="4way_22"/>
<trip id="175" depart="40.25" fromJunction="4way_25" toJunction="4way_43"/>
<trip id="176" depart="40.480000000000004" fromJunction="3way_59" toJunction="3way_60"/>
<trip id="177" depart="40.71" fromJunction="4way_48" toJunction="4way_61"/>
<trip id="178" depart="40.940000000000005" fromJunction="4way_77" toJunction="3way_97"/>
<trip id="179" depart="41.17" fromJunction="4way_42" toJunction="4way_53"/>
<trip id="180" depart="41.4" fromJunction="4way_52" toJunction="4way_57"/>
<trip id="181" depart="41.63" fromJunction="4way_71" toJunction="4way_65"/>
<trip id="182" depart="41.86" fromJunction="4way_35" toJunction="4way_77"/>
<trip id="183" depart="42.09" fromJunction="3way_10" toJunction="4way_45"/>
<trip id="184" depart="42.32" fromJunction="4way_64" toJunction="4way_16"/>
<trip id="185" depart="42.550000000000004" fromJunction="3way_89" toJunction="3way_91"/>
<trip id="186" depart="42.78" fromJunction="4way_58" toJunction="4way_56"/>
<trip id="187" depart="43.010000000000005" fromJunction="4way_14" toJunction="4way_42"/>
<trip id="188" depart="43.24" fromJunction="4way_42" toJunction="4way_37"/>
<trip id="189" depart="43.47" fromJunction="4way_83" toJunction="4way_48"/>
<trip id="190" depart="43.7" fromJunction="4way_87" toJunction="4way_76"/>
<trip id="191" depart="43.93" fromJunction="3way_89" toJunction="4way_76"/>
<trip id="192" depart="44.160000000000004" fromJunction="4way_71" toJunction="4way_54"/>
<trip id="193" depart="44.39" fromJunction="4way_12" toJunction="3way_7"/>
<trip id="194" depart="44.620000000000005" fromJunction="4way_27" toJunction="3way_80"/>
<trip id="195" depart="44.85" fromJunction="4way_58" toJunction="3way_4"/>
<trip id="196" depart="45.080000000000005" fromJunction="3way_97" toJunction="3way_2"/>
<trip id="197" depart="45.31" fromJunction="4way_28" toJunction="4way_71"/>
<trip id="198" depart="45.54" fromJunction="4way_38" toJunction="3way_29"/>
<trip id="199" depart="45.77" fromJunction="4way_42" toJunction="4way_47"/>
<trip id="200" depart="46.0" fromJunction="3way_92" toJunction="3way_10"/>
<trip id="201" depart="46.230000000000004" fromJunction="3way_4" toJunction="4way_34"/>
<trip id="202" depart="46.46" fromJunction="4way_22" toJunction="3way_2"/>
<trip id="203" depart="46.690000000000005" fromJunction="3way_80" toJunction="3way_7"/>
<trip id="204" depart="46.92" fromJunction="3way_80" toJunction="3way_93"/>
<trip id="205" depart="47.15" fromJunction="3way_2" toJunction="3way_59"/>
<trip id="206" depart="47.38" fromJunction="4way_44" toJunction="3way_49"/>
<trip id="207" depart="47.61" fromJunction="4way_88" toJunction="4way_68"/>
<trip id="208" depart="47.84" fromJunction="3way_89" toJunction="4way_81"/>
<trip id="209" depart="48.07" fromJunction="4way_82" toJunction="4way_64"/>
<trip id="210" depart="48.300000000000004" fromJunction="3way_7" toJunction="4way_78"/>
<trip id="211" depart="48.53" fromJunction="3way_50" toJunction="4way_46"/>
<trip id="212" depart="48.760000000000005" fromJunction="4way_84" toJunction="3way_91"/>
<trip id="213" depart="48.99" fromJunction="4way_84" toJunction="3way_91"/>
<trip id="214" depart="49.22" fromJunction="4way_12" toJunction="4way_23"/>
<trip id="215" depart="49.45" fromJunction="3way_50" toJunction="4way_63"/>
<trip id="216" depart="49.68" fromJunction="4way_81" toJunction="4way_45"/>
<trip id="217" depart="49.910000000000004" fromJunction="4way_86" toJunction="4way_31"/>
<trip id="218" depart="50.14" fromJunction="3way_5" toJunction="4way_18"/>
<trip id="219" depart="50.370000000000005" fromJunction="4way_21" toJunction="3way_92"/>
<trip id="220" depart="50.6" fromJunction="4way_78" toJunction="4way_76"/>
<trip id="221" depart="50.830000000000005" fromJunction="4way_77" toJunction="4way_68"/>
<trip id="222" depart="51.06" fromJunction="4way_88" toJunction="3way_40"/>
<trip id="223" depart="51.29" fromJunction="3way_39" toJunction="3way_91"/>
<trip id="224" depart="51.52" fromJunction="3way_92" toJunction="4way_48"/>
<trip id="225" depart="51.75" fromJunction="3way_6" toJunction="4way_35"/>
<trip id="226" depart="51.980000000000004" fromJunction="4way_57" toJunction="4way_75"/>
<trip id="227" depart="52.21" fromJunction="4way_51" toJunction="3way_60"/>
<trip id="228" depart="52.440000000000005" fromJunction="4way_85" toJunction="4way_41"/>
<trip id="229" depart="52.67" fromJunction="3way_98" toJunction="3way_92"/>
<trip id="230" depart="52.900000000000006" fromJunction="3way_30" toJunction="4way_42"/>
<trip id="231" depart="53.13" fromJunction="3way_92" toJunction="4way_17"/>
<trip id="232" depart="53.36" fromJunction="4way_38" toJunction="4way_13"/>
<trip id="233" depart="53.59" fromJunction="4way_47" toJunction="4way_54"/>
<trip id="234" depart="53.82" fromJunction="4way_16" toJunction="4way_38"/>
<trip id="235" depart="54.050000000000004" fromJunction="4way_58" toJunction="4way_45"/>
<trip id="236" depart="54.28" fromJunction="4way_42" toJunction="4way_88"/>
<trip id="237" depart="54.510000000000005" fromJunction="3way_40" toJunction="3way_7"/>
<trip id="238" depart="54.74" fromJunction="4way_12" toJunction="3way_79"/>
<trip id="239" depart="54.97" fromJunction="4way_24" toJunction="3way_59"/>
<trip id="240" depart="55.2" fromJunction="4way_67" toJunction="4way_51"/>
<trip id="241" depart="55.43" fromJunction="4way_53" toJunction="4way_58"/>
<trip id="242" depart="55.660000000000004" fromJunction="4way_14" toJunction="3way_60"/>
<trip id="243" depart="55.89" fromJunction="4way_81" toJunction="4way_77"/>
<trip id="244" depart="56.120000000000005" fromJunction="3way_60" toJunction="4way_53"/>
<trip id="245" depart="56.35" fromJunction="4way_71" toJunction="4way_42"/>
<trip id="246" depart="56.580000000000005" fromJunction="4way_13" toJunction="3way_91"/>
<trip id="247" depart="56.81" fromJunction="4way_41" toJunction="3way_30"/>
<trip id="248" depart="57.04" fromJunction="4way_16" toJunction="4way_33"/>
<trip id="249" depart="57.27" fromJunction="4way_18" toJunction="4way_11"/>
<trip id="250" depart="57.5" fromJunction="3way_5" toJunction="4way_37"/>
<trip id="251" depart="57.730000000000004" fromJunction="4way_32" toJunction="3way_80"/>
<trip id="252" depart="57.96" fromJunction="4way_21" toJunction="3way_39"/>
<trip id="253" depart="58.190000000000005" fromJunction="4way_25" toJunction="4way_85"/>
<trip id="254" depart="58.42" fromJunction="4way_55" toJunction="4way_44"/>
<trip id="255" depart="58.650000000000006" fromJunction="4way_11" toJunction="3way_95"/>
<trip id="256" depart="58.88" fromJunction="4way_57" toJunction="4way_15"/>
<trip id="257" depart="59.11" fromJunction="3way_50" toJunction="4way_53"/>
<trip id="258" depart="59.34" fromJunction="4way_55" toJunction="3way_3"/>
<trip id="259" depart="59.57" fromJunction="4way_41" toJunction="3way_1"/>
<trip id="260" depart="59.800000000000004" fromJunction="4way_18" toJunction="4way_33"/>
<trip id="261" depart="60.03" fromJunction="4way_71" toJunction="3way_19"/>
<trip id="262" depart="60.260000000000005" fromJunction="4way_11" toJunction="3way_3"/>
<trip id="263" depart="60.49" fromJunction="3way_60" toJunction="4way_44"/>
<trip id="264" depart="60.720000000000006" fromJunction="3way_49" toJunction="3way_94"/>
<trip id="265" depart="60.95" fromJunction="4way_35" toJunction="4way_83"/>
<trip id="266" depart="61.18" fromJunction="4way_48" toJunction="4way_15"/>
<trip id="267" depart="61.410000000000004" fromJunction="4way_74" toJunction="3way_1"/>
<trip id="268" depart="61.64" fromJunction="4way_14" toJunction="4way_24"/>
<trip id="269" depart="61.870000000000005" fromJunction="3way_2" toJunction="4way_58"/>
<trip id="270" depart="62.1" fromJunction="4way_76" toJunction="4way_35"/>
<trip id="271" depart="62.330000000000005" fromJunction="4way_11" toJunction="4way_13"/>
<trip id="272" depart="62.56" fromJunction="3way_29" toJunction="4way_46"/>
<trip id="273" depart="62.790000000000006" fromJunction="4way_23" toJunction="4way_32"/>
<trip id="274" depart="63.02" fromJunction="3way_19" toJunction="4way_35"/>
<trip id="275" depart="63.25" fromJunction="4way_81" toJunction="3way_93"/>
<trip id="276" depart="63.480000000000004" fromJunction="4way_67" toJunction="4way_44"/>
<trip id="277" depart="63.71" fromJunction="3way_59" toJunction="4way_44"/>
<trip id="278" depart="63.940000000000005" fromJunction="4way_47" toJunction="4way_78"/>
<trip id="279" depart="64.17" fromJunction="4way_18" toJunction="4way_13"/>
<trip id="280" depart="64.4" fromJunction="4way_18" toJunction="4way_43"/>
<trip id="281" depart="64.63000000000001" fromJunction="4way_58" toJunction="4way_86"/>
<trip id="282" depart="64.86" fromJunction="3way_4" toJunction="4way_18"/>
<trip id="283" depart="65.09" fromJunction="4way_61" toJunction="3way_98"/>
<trip id="284" depart="65.32000000000001" fromJunction="3way_40" toJunction="4way_48"/>
<trip id="285" depart="65.55" fromJunction="4way_67" toJunction="3way_89"/>
<trip id="286" depart="65.78" fromJunction="4way_87" toJunction="4way_32"/>
<trip id="287" depart="66.01" fromJunction="4way_84" toJunction="3way_89"/>
<trip id="288" depart="66.24000000000001" fromJunction="3way_8" toJunction="4way_32"/>
<trip id="289" depart="66.47" fromJunction="3way_91" toJunction="4way_35"/>
<trip id="290" depart="66.7" fromJunction="3way_6" toJunction="3way_4"/>
<trip id="291" depart="66.93" fromJunction="4way_87" toJunction="3way_6"/>
<trip id="292" depart="67.16" fromJunction="4way_77" toJunction="4way_85"/>
<trip id="293" depart="67.39" fromJunction="4way_33" toJunction="4way_15"/>
<trip id="294" depart="67.62" fromJunction="4way_88" toJunction="3way_30"/>
<trip id="295" depart="67.85000000000001" fromJunction="4way_62" toJunction="4way_31"/>
<trip id="296" depart="68.08" fromJunction="4way_78" toJunction="4way_51"/>
<trip id="297" depart="68.31" fromJunction="3way_10" toJunction="3way_98"/>
<trip id="298" depart="68.54" fromJunction="3way_7" toJunction="4way_25"/>
<trip id="299" depart="68.77" fromJunction="4way_62" toJunction="4way_34"/>
<trip id="300" depart="69.0" fromJunction="3way_92" toJunction="3way_50"/>
<trip id="301" depart="69.23" fromJunction="4way_41" toJunction="4way_23"/>
<trip id="302" depart="69.46000000000001" fromJunction="4way_11" toJunction="4way_42"/>
<trip id="303" depart="69.69" fromJunction="3way_59" toJunction="4way_68"/>
<trip id="304" depart="69.92" fromJunction="4way_11" toJunction="3way_29"/>
<trip id="305" depart="70.15" fromJunction="4way_84" toJunction="4way_14"/>
<trip id="306" depart="70.38000000000001" fromJunction="4way_88" toJunction="4way_71"/>
<trip id="307" depart="70.61" fromJunction="4way_65" toJunction="4way_21"/>
<trip id="308" depart="70.84" fromJunction="4way_76" toJunction="4way_64"/>
<trip id="309" depart="71.07000000000001" fromJunction="4way_67" toJunction="4way_68"/>
<trip id="310" depart="71.3" fromJunction="4way_45" toJunction="4way_26"/>
<trip id="311" depart="71.53" fromJunction="3way_79" toJunction="4way_11"/>
<trip id="312" depart="71.76" fromJunction="3way_91" toJunction="3way_7"/>
<trip id="313" depart="71.99000000000001" fromJunction="4way_33" toJunction="4way_22"/>
<trip id="314" depart="72.22" fromJunction="4way_58" toJunction="4way_36"/>
<trip id="315" depart="72.45" fromJunction="3way_39" toJunction="3way_49"/>
<trip id="316" depart="72.68" fromJunction="4way_85" toJunction="4way_14"/>
<trip id="317" depart="72.91" fromJunction="4way_28" toJunction="4way_27"/>
<trip id="318" depart="73.14" fromJunction="4way_71" toJunction="4way_78"/>
<trip id="319" depart="73.37" fromJunction="3way_79" toJunction="4way_51"/>
<trip id="320" depart="73.60000000000001" fromJunction="4way_84" toJunction="4way_25"/>
<trip id="321" depart="73.83" fromJunction="3way_29" toJunction="4way_37"/>
<trip id="322" depart="74.06" fromJunction="4way_83" toJunction="4way_82"/>
<trip id="323" depart="74.29" fromJunction="3way_98" toJunction="3way_91"/>
<trip id="324" depart="74.52000000000001" fromJunction="3way_6" toJunction="4way_37"/>
<trip id="325" depart="74.75" fromJunction="3way_49" toJunction="4way_62"/>
<trip id="326" depart="74.98" fromJunction="4way_78" toJunction="4way_42"/>
<trip id="327" depart="75.21000000000001" fromJunction="4way_37" toJunction="4way_12"/>
<trip id="328" depart="75.44" fromJunction="3way_60" toJunction="3way_49"/>
<trip id="329" depart="75.67" fromJunction="4way_21" toJunction="4way_15"/>
<trip id="330" depart="75.9" fromJunction="4way_64" toJunction="4way_55"/>
<trip id="331" depart="76.13000000000001" fromJunction="4way_22" toJunction="4way_71"/>
<trip id="332" depart="76.36" fromJunction="3way_7" toJunction="4way_34"/>
<trip id="333" depart="76.59" fromJunction="4way_74" toJunction="4way_76"/>
<trip id="334" depart="76.82000000000001" fromJunction="4way_43" toJunction="4way_65"/>
<trip id="335" depart="77.05" fromJunction="4way_71" toJunction="3way_39"/>
<trip id="336" depart="77.28" fromJunction="3way_20" toJunction="4way_71"/>
<trip id="337" depart="77.51" fromJunction="4way_75" toJunction="3way_3"/>
<trip id="338" depart="77.74000000000001" fromJunction="4way_34" toJunction="3way_39"/>
<trip id="339" depart="77.97" fromJunction="4way_54" toJunction="4way_45"/>
<trip id="340" depart="78.2" fromJunction="3way_29" toJunction="4way_58"/>
<trip id="341" depart="78.43" fromJunction="3way_3" toJunction="4way_47"/>
<trip id="342" depart="78.66" fromJunction="4way_71" toJunction="4way_43"/>
<trip id="343" depart="78.89" fromJunction="4way_41" toJunction="4way_33"/>
<trip id="344" depart="79.12" fromJunction="3way_2" toJunction="3way_96"/>
<trip id="345" depart="79.35000000000001" fromJunction="4way_17" toJunction="4way_23"/>
<trip id="346" depart="79.58" fromJunction="3way_93" toJunction="4way_41"/>
<trip id="347" depart="79.81" fromJunction="3way_19" toJunction="3way_8"/>
<trip id="348" depart="80.04" fromJunction="3way_29" toJunction="3way_93"/>
<trip id="349" depart="80.27000000000001" fromJunction="3way_7" toJunction="3way_70"/>
<trip id="350" depart="80.5" fromJunction="4way_37" toJunction="3way_7"/>
<trip id="351" depart="80.73" fromJunction="4way_63" toJunction="3way_89"/>
<trip id="352" depart="80.96000000000001" fromJunction="4way_42" toJunction="4way_36"/>
<trip id="353" depart="81.19" fromJunction="3way_95" toJunction="3way_79"/>
<trip id="354" depart="81.42" fromJunction="4way_33" toJunction="4way_22"/>
<trip id="355" depart="81.65" fromJunction="4way_46" toJunction="4way_21"/>
<trip id="356" depart="81.88000000000001" fromJunction="4way_28" toJunction="4way_16"/>
<trip id="357" depart="82.11" fromJunction="4way_67" toJunction="3way_3"/>
<trip id="358" depart="82.34" fromJunction="4way_57" toJunction="4way_61"/>
<trip id="359" depart="82.57000000000001" fromJunction="4way_78" toJunction="4way_35"/>
<trip id="360" depart="82.8" fromJunction="4way_31" toJunction="4way_16"/>
<trip id="361" depart="83.03" fromJunction="4way_51" toJunction="4way_13"/>
<trip id="362" depart="83.26" fromJunction="3way_70" toJunction="4way_41"/>
<trip id="363" depart="83.49000000000001" fromJunction="4way_25" toJunction="4way_82"/>
<trip id="364" depart="83.72" fromJunction="4way_33" toJunction="3way_60"/>
<trip id="365" depart="83.95" fromJunction="3way_89" toJunction="3way_49"/>
<trip id="366" depart="84.18" fromJunction="4way_68" toJunction="3way_5"/>
<trip id="367" depart="84.41" fromJunction="3way_97" toJunction="3way_1"/>
<trip id="368" depart="84.64" fromJunction="3way_8" toJunction="4way_34"/>
<trip id="369" depart="84.87" fromJunction="4way_65" toJunction="4way_57"/>
<trip id="370" depart="85.10000000000001" fromJunction="4way_13" toJunction="4way_58"/>
<trip id="371" depart="85.33" fromJunction="4way_53" toJunction="3way_40"/>
<trip id="372" depart="85.56" fromJunction="4way_23" toJunction="4way_28"/>
<trip id="373" depart="85.79" fromJunction="4way_57" toJunction="3way_70"/>
<trip id="374" depart="86.02000000000001" fromJunction="3way_1" toJunction="4way_41"/>
<trip id="375" depart="86.25" fromJunction="3way_20" toJunction="3way_91"/>
<trip id="376" depart="86.48" fromJunction="4way_52" toJunction="4way_37"/>