<?xml version="1.0" encoding="UTF-8"?>
<edges xmlns:xsi="http://www.w3.org/2001/XMLSchema-instance" xsi:noNamespaceSchemaLocation="http://sumo.dlr.de/xsd/edges_file.xsd">
    <edge from="3way_1" id="1_3way_1to3way_2" to="3way_2" spreadType="roadCenter" numLanes="1" priority="1"/>
    <edge from="3way_2" id="1_3way_2to3way_1" to="3way_1" spreadType="roadCenter" numLanes="1" priority="1"/>
    <edge from="3way_1" id="2_3way_1to3way_20" to="3way_20" spreadType="roadCenter" numLanes="1" priority="1" shape="200.00,0.00 0.00,0.00 0.00,-200.00"/>
    <edge from="3way_20" id="2_3way_20to3way_1" to="3way_1" spreadType="roadCenter" numLanes="1" priority="1" shape="0.00,-200.00 0.00,0.00 200.00,0.00"/>
    <edge from="3way_1" id="3_3way_1to4way_21" to="4way_21" spreadType="roadCenter" numLanes="1" priority="0"/>
    <edge from="4way_21" id="3_4way_21to3way_1" to="3way_1" spreadType="roadCenter" numLanes="1" priority="0"/>
    <edge from="3way_10" id="4_3way_10to3way_11" to="3way_11" spreadType="roadCenter" numLanes="1" priority="1"/>
    <edge from="3way_11" id="4_3way_11to3way_10" to="3way_10" spreadType="roadCenter" numLanes="1" priority="1"/>
    <edge from="3way_10" id="5_3way_10to3way_9" to="3way_9" spreadType="roadCenter" numLanes="1" priority="1"/>
    <edge from="3way_9" id="5_3way_9to3way_10" to="3way_10" spreadType="roadCenter" numLanes="1" priority="1"/>
    <edge from="3way_10" id="6_3way_10to4way_30" to="4way_30" spreadType="roadCenter" numLanes="1" priority="0"/>
    <edge from="4way_30" id="6_4way_30to3way_10" to="3way_10" spreadType="roadCenter" numLanes="1" priority="0"/>
    <edge from="3way_100" id="7_3way_100to3way_120" to="3way_120" spreadType="roadCenter" numLanes="1" priority="1"/>
    <edge from="3way_120" id="7_3way_120to3way_100" to="3way_100" spreadType="roadCenter" numLanes="1" priority="1"/>
    <edge from="3way_100" id="8_3way_100to3way_80" to="3way_80" spreadType="roadCenter" numLanes="1" priority="1"/>
    <edge from="3way_80" id="8_3way_80to3way_100" to="3way_100" spreadType="roadCenter" numLanes="1" priority="1"/>
    <edge from="3way_100" id="9_3way_100to4way_101" to="4way_101" spreadType="roadCenter" numLanes="1" priority="0"/>
    <edge from="4way_101" id="9_4way_101to3way_100" to="3way_100" spreadType="roadCenter" numLanes="1" priority="0"/>
    <edge from="3way_11" id="10_3way_11to3way_12" to="3way_12" spreadType="roadCenter" numLanes="1" priority="1"/>
    <edge from="3way_12" id="10_3way_12to3way_11" to="3way_11" spreadType="roadCenter" numLanes="1" priority="1"/>
    <edge from="3way_11" id="11_3way_11to4way_31" to="4way_31" spreadType="roadCenter" numLanes="1" priority="0"/>
    <edge from="4way_31" id="11_4way_31to3way_11" to="3way_11" spreadType="roadCenter" numLanes="1" priority="0"/>
    <edge from="3way_119" id="12_3way_119to3way_139" to="3way_139" spreadType="roadCenter" numLanes="1" priority="1"/>
    <edge from="3way_139" id="12_3way_139to3way_119" to="3way_119" spreadType="roadCenter" numLanes="1" priority="1"/>
    <edge from="3way_119" id="13_3way_119to3way_99" to="3way_99" spreadType="roadCenter" numLanes="1" priority="1"/>
    <edge from="3way_99" id="13_3way_99to3way_119" to="3way_119" spreadType="roadCenter" numLanes="1" priority="1"/>
    <edge from="3way_119" id="14_3way_119to4way_118" to="4way_118" spreadType="roadCenter" numLanes="1" priority="0"/>
    <edge from="4way_118" id="14_4way_118to3way_119" to="3way_119" spreadType="roadCenter" numLanes="1" priority="0"/>
    <edge from="3way_12" id="15_3way_12to3way_13" to="3way_13" spreadType="roadCenter" numLanes="1" priority="1"/>
    <edge from="3way_13" id="15_3way_13to3way_12" to="3way_12" spreadType="roadCenter" numLanes="1" priority="1"/>
    <edge from="3way_12" id="16_3way_12to4way_32" to="4way_32" spreadType="roadCenter" numLanes="1" priority="0"/>
    <edge from="4way_32" id="16_4way_32to3way_12" to="3way_12" spreadType="roadCenter" numLanes="1" priority="0"/>
    <edge from="3way_120" id="17_3way_120to3way_140" to="3way_140" spreadType="roadCenter" numLanes="1" priority="1"/>
    <edge from="3way_140" id="17_3way_140to3way_120" to="3way_120" spreadType="roadCenter" numLanes="1" priority="1"/>
    <edge from="3way_120" id="18_3way_120to4way_121" to="4way_121" spreadType="roadCenter" numLanes="1" priority="0"/>
    <edge from="4way_121" id="18_4way_121to3way_120" to="3way_120" spreadType="roadCenter" numLanes="1" priority="0"/>
    <edge from="3way_13" id="19_3way_13to3way_14" to="3way_14" spreadType="roadCenter" numLanes="1" priority="1"/>
    <edge from="3way_14" id="19_3way_14to3way_13" to="3way_13" spreadType="roadCenter" numLanes="1" priority="1"/>
    <edge from="3way_13" id="20_3way_13to4way_33" to="4way_33" spreadType="roadCenter" numLanes="1" priority="0"/>
    <edge from="4way_33" id="20_4way_33to3way_13" to="3way_13" spreadType="roadCenter" numLanes="1" priority="0"/>
    <edge from="3way_139" id="21_3way_139to3way_159" to="3way_159" spreadType="roadCenter" numLanes="1" priority="1"/>
    <edge from="3way_159" id="21_3way_159to3way_139" to="3way_139" spreadType="roadCenter" numLanes="1" priority="1"/>
    <edge from="3way_139" id="22_3way_139to4way_138" to="4way_138" spreadType="roadCenter" numLanes="1" priority="0"/>
    <edge from="4way_138" id="22_4way_138to3way_139" to="3way_139" spreadType="roadCenter" numLanes="1" priority="0"/>
    <edge from="3way_14" id="23_3way_14to3way_15" to="3way_15" spreadType="roadCenter" numLanes="1" priority="1"/>
    <edge from="3way_15" id="23_3way_15to3way_14" to="3way_14" spreadType="roadCenter" numLanes="1" priority="1"/>
    <edge from="3way_14" id="24_3way_14to4way_34" to="4way_34" spreadType="roadCenter" numLanes="1" priority="0"/>
    <edge from="4way_34" id="24_4way_34to3way_14" to="3way_14" spreadType="roadCenter" numLanes="1" priority="0"/>
    <edge from="3way_140" id="25_3way_140to3way_160" to="3way_160" spreadType="roadCenter" numLanes="1" priority="1"/>
    <edge from="3way_160" id="25_3way_160to3way_140" to="3way_140" spreadType="roadCenter" numLanes="1" priority="1"/>
    <edge from="3way_140" id="26_3way_140to4way_141" to="4way_141" spreadType="roadCenter" numLanes="1" priority="0"/>
    <edge from="4way_141" id="26_4way_141to3way_140" to="3way_140" spreadType="roadCenter" numLanes="1" priority="0"/>
    <edge from="3way_15" id="27_3way_15to3way_16" to="3way_16" spreadType="roadCenter" numLanes="1" priority="1"/>
    <edge from="3way_16" id="27_3way_16to3way_15" to="3way_15" spreadType="roadCenter" numLanes="1" priority="1"/>
    <edge from="3way_15" id="28_3way_15to4way_35" to="4way_35" spreadType="roadCenter" numLanes="1" priority="0"/>
    <edge from="4way_35" id="28_4way_35to3way_15" to="3way_15" spreadType="roadCenter" numLanes="1" priority="0"/>
    <edge from="3way_159" id="29_3way_159to3way_179" to="3way_179" spreadType="roadCenter" numLanes="1" priority="1"/>
    <edge from="3way_179" id="29_3way_179to3way_159" to="3way_159" spreadType="roadCenter" numLanes="1" priority="1"/>
    <edge from="3way_159" id="30_3way_159to4way_158" to="4way_158" spreadType="roadCenter" numLanes="1" priority="0"/>
    <edge from="4way_158" id="30_4way_158to3way_159" to="3way_159" spreadType="roadCenter" numLanes="1" priority="0"/>
    <edge from="3way_16" id="31_3way_16to3way_17" to="3way_17" spreadType="roadCenter" numLanes="1" priority="1"/>
    <edge from="3way_17" id="31_3way_17to3way_16" to="3way_16" spreadType="roadCenter" numLanes="1" priority="1"/>
    <edge from="3way_16" id="32_3way_16to4way_36" to="4way_36" spreadType="roadCenter" numLanes="1" priority="0"/>
    <edge from="4way_36" id="32_4way_36to3way_16" to="3way_16" spreadType="roadCenter" numLanes="1" priority="0"/>
    <edge from="3way_160" id="33_3way_160to3way_180" to="3way_180" spreadType="roadCenter" numLanes="1" priority="1"/>
    <edge from="3way_180" id="33_3way_180to3way_160" to="3way_160" spreadType="roadCenter" numLanes="1" priority="1"/>
    <edge from="3way_160" id="34_3way_160to4way_161" to="4way_161" spreadType="roadCenter" numLanes="1" priority="0"/>
    <edge from="4way_161" id="34_4way_161to3way_160" to="3way_160" spreadType="roadCenter" numLanes="1" priority="0"/>
    <edge from="3way_17" id="35_3way_17to3way_18" to="3way_18" spreadType="roadCenter" numLanes="1" priority="1"/>
    <edge from="3way_18" id="35_3way_18to3way_17" to="3way_17" spreadType="roadCenter" numLanes="1" priority="1"/>
    <edge from="3way_17" id="36_3way_17to4way_37" to="4way_37" spreadType="roadCenter" numLanes="1" priority="0"/>
    <edge from="4way_37" id="36_4way_37to3way_17" to="3way_17" spreadType="roadCenter" numLanes="1" priority="0"/>
    <edge from="3way_179" id="37_3way_179to3way_199" to="3way_199" spreadType="roadCenter" numLanes="1" priority="1"/>
    <edge from="3way_199" id="37_3way_199to3way_179" to="3way_179" spreadType="roadCenter" numLanes="1" priority="1"/>
    <edge from="3way_179" id="38_3way_179to4way_178" to="4way_178" spreadType="roadCenter" numLanes="1" priority="0"/>
    <edge from="4way_178" id="38_4way_178to3way_179" to="3way_179" spreadType="roadCenter" numLanes="1" priority="0"/>
    <edge from="3way_18" id="39_3way_18to3way_39" to="3way_39" spreadType="roadCenter" numLanes="1" priority="1" shape="3600.00,0.00 3800.00,0.00 3800.00,-200.00"/>
    <edge from="3way_39" id="39_3way_39to3way_18" to="3way_18" spreadType="roadCenter" numLanes="1" priority="1" shape="3800.00,-200.00 3800.00,0.00 3600.00,0.00"/>
    <edge from="3way_18" id="40_3way_18to4way_38" to="4way_38" spreadType="roadCenter" numLanes="1" priority="0"/>
    <edge from="4way_38" id="40_4way_38to3way_18" to="3way_18" spreadType="roadCenter" numLanes="1" priority="0"/>
    <edge from="3way_180" id="41_3way_180to3way_200" to="3way_200" spreadType="roadCenter" numLanes="1" priority="1"/>
    <edge from="3way_200" id="41_3way_200to3way_180" to="3way_180" spreadType="roadCenter" numLanes="1" priority="1"/>
    <edge from="3way_180" id="42_3way_180to4way_181" to="4way_181" spreadType="roadCenter" numLanes="1" priority="0"/>
    <edge from="4way_181" id="42_4way_181to3way_180" to="3way_180" spreadType="roadCenter" numLanes="1" priority="0"/>
    <edge from="3way_199" id="43_3way_199to3way_219" to="3way_219" spreadType="roadCenter" numLanes="1" priority="1"/>
    <edge from="3way_219" id="43_3way_219to3way_199" to="3way_199" spreadType="roadCenter" numLanes="1" priority="1"/>
    <edge from="3way_199" id="44_3way_199to4way_198" to="4way_198" spreadType="roadCenter" numLanes="1" priority="0"/>
    <edge from="4way_198" id="44_4way_198to3way_199" to="3way_199" spreadType="roadCenter" numLanes="1" priority="0"/>
    <edge from="3way_2" id="45_3way_2to3way_3" to="3way_3" spreadType="roadCenter" numLanes="1" priority="1"/>
    <edge from="3way_3" id="45_3way_3to3way_2" to="3way_2" spreadType="roadCenter" numLanes="1" priority="1"/>
    <edge from="3way_2" id="46_3way_2to4way_22" to="4way_22" spreadType="roadCenter" numLanes="1" priority="0"/>
    <edge from="4way_22" id="46_4way_22to3way_2" to="3way_2" spreadType="roadCenter" numLanes="1" priority="0"/>
    <edge from="3way_20" id="47_3way_20to3way_40" to="3way_40" spreadType="roadCenter" numLanes="1" priority="1"/>
    <edge from="3way_40" id="47_3way_40to3way_20" to="3way_20" spreadType="roadCenter" numLanes="1" priority="1"/>
    <edge from="3way_20" id="48_3way_20to4way_21" to="4way_21" spreadType="roadCenter" numLanes="1" priority="0"/>
    <edge from="4way_21" id="48_4way_21to3way_20" to="3way_20" spreadType="roadCenter" numLanes="1" priority="0"/>
    <edge from="3way_200" id="49_3way_200to3way_220" to="3way_220" spreadType="roadCenter" numLanes="1" priority="1"/>
    <edge from="3way_220" id="49_3way_220to3way_200" to="3way_200" spreadType="roadCenter" numLanes="1" priority="1"/>
    <edge from="3way_200" id="50_3way_200to4way_201" to="4way_201" spreadType="roadCenter" numLanes="1" priority="0"/>
    <edge from="4way_201" id="50_4way_201to3way_200" to="3way_200" spreadType="roadCenter" numLanes="1" priority="0"/>
    <edge from="3way_219" id="51_3way_219to3way_239" to="3way_239" spreadType="roadCenter" numLanes="1" priority="1"/>
    <edge from="3way_239" id="51_3way_239to3way_219" to="3way_219" spreadType="roadCenter" numLanes="1" priority="1"/>
    <edge from="3way_219" id="52_3way_219to4way_218" to="4way_218" spreadType="roadCenter" numLanes="1" priority="0"/>
    <edge from="4way_218" id="52_4way_218to3way_219" to="3way_219" spreadType="roadCenter" numLanes="1" priority="0"/>
    <edge from="3way_220" id="53_3way_220to3way_240" to="3way_240" spreadType="roadCenter" numLanes="1" priority="1"/>
    <edge from="3way_240" id="53_3way_240to3way_220" to="3way_220" spreadType="roadCenter" numLanes="1" priority="1"/>
    <edge from="3way_220" id="54_3way_220to4way_221" to="4way_221" spreadType="roadCenter" numLanes="1" priority="0"/>
    <edge from="4way_221" id="54_4way_221to3way_220" to="3way_220" spreadType="roadCenter" numLanes="1" priority="0"/>
    <edge from="3way_239" id="55_3way_239to3way_259" to="3way_259" spreadType="roadCenter" numLanes="1" priority="1"/>
    <edge from="3way_259" id="55_3way_259to3way_239" to="3way_239" spreadType="roadCenter" numLanes="1" priority="1"/>
    <edge from="3way_239" id="56_3way_239to4way_238" to="4way_238" spreadType="roadCenter" numLanes="1" priority="0"/>
    <edge from="4way_238" id="56_4way_238to3way_239" to="3way_239" spreadType="roadCenter" numLanes="1" priority="0"/>
    <edge from="3way_240" id="57_3way_240to3way_260" to="3way_260" spreadType="roadCenter" numLanes="1" priority="1"/>
    <edge from="3way_260" id="57_3way_260to3way_240" to="3way_240" spreadType="roadCenter" numLanes="1" priority="1"/>
    <edge from="3way_240" id="58_3way_240to4way_241" to="4way_241" spreadType="roadCenter" numLanes="1" priority="0"/>
    <edge from="4way_241" id="58_4way_241to3way_240" to="3way_240" spreadType="roadCenter" numLanes="1" priority="0"/>
    <edge from="3way_259" id="59_3way_259to3way_279" to="3way_279" spreadType="roadCenter" numLanes="1" priority="1"/>
    <edge from="3way_279" id="59_3way_279to3way_259" to="3way_259" spreadType="roadCenter" numLanes="1" priority="1"/>
    <edge from="3way_259" id="60_3way_259to4way_258" to="4way_258" spreadType="roadCenter" numLanes="1" priority="0"/>
    <edge from="4way_258" id="60_4way_258to3way_259" to="3way_259" spreadType="roadCenter" numLanes="1" priority="0"/>
    <edge from="3way_260" id="61_3way_260to3way_280" to="3way_280" spreadType="roadCenter" numLanes="1" priority="1"/>
    <edge from="3way_280" id="61_3way_280to3way_260" to="3way_260" spreadType="roadCenter" numLanes="1" priority="1"/>
    <edge from="3way_260" id="62_3way_260to4way_261" to="4way_261" spreadType="roadCenter" numLanes="1" priority="0"/>
    <edge from="4way_261" id="62_4way_261to3way_260" to="3way_260" spreadType="roadCenter" numLanes="1" priority="0"/>
    <edge from="3way_279" id="63_3way_279to3way_299" to="3way_299" spreadType="roadCenter" numLanes="1" priority="1"/>
    <edge from="3way_299" id="63_3way_299to3way_279" to="3way_279" spreadType="roadCenter" numLanes="1" priority="1"/>
    <edge from="3way_279" id="64_3way_279to4way_278" to="4way_278" spreadType="roadCenter" numLanes="1" priority="0"/>
    <edge from="4way_278" id="64_4way_278to3way_279" to="3way_279" spreadType="roadCenter" numLanes="1" priority="0"/>
    <edge from="3way_280" id="65_3way_280to3way_300" to="3way_300" spreadType="roadCenter" numLanes="1" priority="1"/>
    <edge from="3way_300" id="65_3way_300to3way_280" to="3way_280" spreadType="roadCenter" numLanes="1" priority="1"/>
    <edge from="3way_280" id="66_3way_280to4way_281" to="4way_281" spreadType="roadCenter" numLanes="1" priority="0"/>
    <edge from="4way_281" id="66_4way_281to3way_280" to="3way_280" spreadType="roadCenter" numLanes="1" priority="0"/>
    <edge from="3way_299" id="67_3way_299to3way_319" to="3way_319" spreadType="roadCenter" numLanes="1" priority="1"/>
    <edge from="3way_319" id="67_3way_319to3way_299" to="3way_299" spreadType="roadCenter" numLanes="1" priority="1"/>
    <edge from="3way_299" id="68_3way_299to4way_298" to="4way_298" spreadType="roadCenter" numLanes="1" priority="0"/>
    <edge from="4way_298" id="68_4way_298to3way_299" to="3way_299" spreadType="roadCenter" numLanes="1" priority="0"/>
    <edge from="3way_3" id="69_3way_3to3way_4" to="3way_4" spreadType="roadCenter" numLanes="1" priority="1"/>
    <edge from="3way_4" id="69_3way_4to3way_3" to="3way_3" spreadType="roadCenter" numLanes="1" priority="1"/>
    <edge from="3way_3" id="70_3way_3to4way_23" to="4way_23" spreadType="roadCenter" numLanes="1" priority="0"/>
    <edge from="4way_23" id="70_4way_23to3way_3" to="3way_3" spreadType="roadCenter" numLanes="1" priority="0"/>
    <edge from="3way_300" id="71_3way_300to3way_320" to="3way_320" spreadType="roadCenter" numLanes="1" priority="1"/>
    <edge from="3way_320" id="71_3way_320to3way_300" to="3way_300" spreadType="roadCenter" numLanes="1" priority="1"/>
    <edge from="3way_300" id="72_3way_300to4way_301" to="4way_301" spreadType="roadCenter" numLanes="1" priority="0"/>
    <edge from="4way_301" id="72_4way_301to3way_300" to="3way_300" spreadType="roadCenter" numLanes="1" priority="0"/>
    <edge from="3way_319" id="73_3way_319to3way_339" to="3way_339" spreadType="roadCenter" numLanes="1" priority="1"/>
    <edge from="3way_339" id="73_3way_339to3way_319" to="3way_319" spreadType="roadCenter" numLanes="1" priority="1"/>
    <edge from="3way_319" id="74_3way_319to4way_318" to="4way_318" spreadType="roadCenter" numLanes="1" priority="0"/>
    <edge from="4way_318" id="74_4way_318to3way_319" to="3way_319" spreadType="roadCenter" numLanes="1" priority="0"/>
    <edge from="3way_320" id="75_3way_320to3way_340" to="3way_340" spreadType="roadCenter" numLanes="1" priority="1"/>
    <edge from="3way_340" id="75_3way_340to3way_320" to="3way_320" spreadType="roadCenter" numLanes="1" priority="1"/>
    <edge from="3way_320" id="76_3way_320to4way_321" to="4way_321" spreadType="roadCenter" numLanes="1" priority="0"/>
    <edge from="4way_321" id="76_4way_321to3way_320" to="3way_320" spreadType="roadCenter" numLanes="1" priority="0"/>
    <edge from="3way_339" id="77_3way_339to3way_359" to="3way_359" spreadType="roadCenter" numLanes="1" priority="1"/>
    <edge from="3way_359" id="77_3way_359to3way_339" to="3way_339" spreadType="roadCenter" numLanes="1" priority="1"/>
    <edge from="3way_339" id="78_3way_339to4way_338" to="4way_338" spreadType="roadCenter" numLanes="1" priority="0"/>
    <edge from="4way_338" id="78_4way_338to3way_339" to="3way_339" spreadType="roadCenter" numLanes="1" priority="0"/>
    <edge from="3way_340" id="79_3way_340to3way_360" to="3way_360" spreadType="roadCenter" numLanes="1" priority="1"/>
    <edge from="3way_360" id="79_3way_360to3way_340" to="3way_340" spreadType="roadCenter" numLanes="1" priority="1"/>
    <edge from="3way_340" id="80_3way_340to4way_341" to="4way_341" spreadType="roadCenter" numLanes="1" priority="0"/>
    <edge from="4way_341" id="80_4way_341to3way_340" to="3way_340" spreadType="roadCenter" numLanes="1" priority="0"/>
    <edge from="3way_359" id="81_3way_359to3way_379" to="3way_379" spreadType="roadCenter" numLanes="1" priority="1"/>
    <edge from="3way_379" id="81_3way_379to3way_359" to="3way_359" spreadType="roadCenter" numLanes="1" priority="1"/>
    <edge from="3way_359" id="82_3way_359to4way_358" to="4way_358" spreadType="roadCenter" numLanes="1" priority="0"/>
    <edge from="4way_358" id="82_4way_358to3way_359" to="3way_359" spreadType="roadCenter" numLanes="1" priority="0"/>
    <edge from="3way_381" id="83_3way_381to3way_360" to="3way_360" spreadType="roadCenter" numLanes="1" priority="1" shape="200.00,-3800.00 0.00,-3800.00 0.00,-3600.00"/>
    <edge from="3way_360" id="83_3way_360to3way_381" to="3way_381" spreadType="roadCenter" numLanes="1" priority="1" shape="0.00,-3600.00 0.00,-3800.00 200.00,-3800.00"/>
    <edge from="3way_360" id="84_3way_360to4way_361" to="4way_361" spreadType="roadCenter" numLanes="1" priority="0"/>
    <edge from="4way_361" id="84_4way_361to3way_360" to="3way_360" spreadType="roadCenter" numLanes="1" priority="0"/>
    <edge from="3way_379" id="85_3way_379to3way_398" to="3way_398" spreadType="roadCenter" numLanes="1" priority="1" shape="3800.00,-3600.00 3800.00,-3800.00 3600.00,-3800.00"/>
    <edge from="3way_398" id="85_3way_398to3way_379" to="3way_379" spreadType="roadCenter" numLanes="1" priority="1" shape="3600.00,-3800.00 3800.00,-3800.00 3800.00,-3600.00"/>
    <edge from="3way_379" id="86_3way_379to4way_378" to="4way_378" spreadType="roadCenter" numLanes="1" priority="0"/>
    <edge from="4way_378" id="86_4way_378to3way_379" to="3way_379" spreadType="roadCenter" numLanes="1" priority="0"/>
    <edge from="3way_381" id="87_3way_381to3way_382" to="3way_382" spreadType="roadCenter" numLanes="1" priority="1"/>
    <edge from="3way_382" id="87_3way_382to3way_381" to="3way_381" spreadType="roadCenter" numLanes="1" priority="1"/>
    <edge from="3way_381" id="88_3way_381to4way_361" to="4way_361" spreadType="roadCenter" numLanes="1" priority="0"/>
    <edge from="4way_361" id="88_4way_361to3way_381" to="3way_381" spreadType="roadCenter" numLanes="1" priority="0"/>
    <edge from="3way_382" id="89_3way_382to3way_383" to="3way_383" spreadType="roadCenter" numLanes="1" priority="1"/>
    <edge from="3way_383" id="89_3way_383to3way_382" to="3way_382" spreadType="roadCenter" numLanes="1" priority="1"/>
    <edge from="3way_382" id="90_3way_382to4way_362" to="4way_362" spreadType="roadCenter" numLanes="1" priority="0"/>
    <edge from="4way_362" id="90_4way_362to3way_382" to="3way_382" spreadType="roadCenter" numLanes="1" priority="0"/>
    <edge from="3way_383" id="91_3way_383to3way_384" to="3way_384" spreadType="roadCenter" numLanes="1" priority="1"/>
    <edge from="3way_384" id="91_3way_384to3way_383" to="3way_383" spreadType="roadCenter" numLanes="1" priority="1"/>
    <edge from="3way_383" id="92_3way_383to4way_363" to="4way_363" spreadType="roadCenter" numLanes="1" priority="0"/>
    <edge from="4way_363" id="92_4way_363to3way_383" to="3way_383" spreadType="roadCenter" numLanes="1" priority="0"/>
    <edge from="3way_384" id="93_3way_384to3way_385" to="3way_385" spreadType="roadCenter" numLanes="1" priority="1"/>
    <edge from="3way_385" id="93_3way_385to3way_384" to="3way_384" spreadType="roadCenter" numLanes="1" priority="1"/>
    <edge from="3way_384" id="94_3way_384to4way_364" to="4way_364" spreadType="roadCenter" numLanes="1" priority="0"/>
    <edge from="4way_364" id="94_4way_364to3way_384" to="3way_384" spreadType="roadCenter" numLanes="1" priority="0"/>
    <edge from="3way_385" id="95_3way_385to3way_386" to="3way_386" spreadType="roadCenter" numLanes="1" priority="1"/>
    <edge from="3way_386" id="95_3way_386to3way_385" to="3way_385" spreadType="roadCenter" numLanes="1" priority="1"/>
    <edge from="3way_385" id="96_3way_385to4way_365" to="4way_365" spreadType="roadCenter" numLanes="1" priority="0"/>
    <edge from="4way_365" id="96_4way_365to3way_385" to="3way_385" spreadType="roadCenter" numLanes="1" priority="0"/>
    <edge from="3way_386" id="97_3way_386to3way_387" to="3way_387" spreadType="roadCenter" numLanes="1" priority="1"/>
    <edge from="3way_387" id="97_3way_387to3way_386" to="3way_386" spreadType="roadCenter" numLanes="1" priority="1"/>
    <edge from="3way_386" id="98_3way_386to4way_366" to="4way_366" spreadType="roadCenter" numLanes="1" priority="0"/>
    <edge from="4way_366" id="98_4way_366to3way_386" to="3way_386" spreadType="roadCenter" numLanes="1" priority="0"/>
    <edge from="3way_387" id="99_3way_387to3way_388" to="3way_388" spreadType="roadCenter" numLanes="1" priority="1"/>
    <edge from="3way_388" id="99_3way_388to3way_387" to="3way_387" spreadType="roadCenter" numLanes="1" priority="1"/>
    <edge from="3way_387" id="100_3way_387to4way_367" to="4way_367" spreadType="roadCenter" numLanes="1" priority="0"/>
    <edge from="4way_367" id="100_4way_367to3way_387" to="3way_387" spreadType="roadCenter" numLanes="1" priority="0"/>
    <edge from="3way_388" id="101_3way_388to3way_389" to="3way_389" spreadType="roadCenter" numLanes="1" priority="1"/>
    <edge from="3way_389" id="101_3way_389to3way_388" to="3way_388" spreadType="roadCenter" numLanes="1" priority="1"/>
    <edge from="3way_388" id="102_3way_388to4way_368" to="4way_368" spreadType="roadCenter" numLanes="1" priority="0"/>
    <edge from="4way_368" id="102_4way_368to3way_388" to="3way_388" spreadType="roadCenter" numLanes="1" priority="0"/>
    <edge from="3way_389" id="103_3way_389to3way_390" to="3way_390" spreadType="roadCenter" numLanes="1" priority="1"/>
    <edge from="3way_390" id="103_3way_390to3way_389" to="3way_389" spreadType="roadCenter" numLanes="1" priority="1"/>
    <edge from="3way_389" id="104_3way_389to4way_369" to="4way_369" spreadType="roadCenter" numLanes="1" priority="0"/>
    <edge from="4way_369" id="104_4way_369to3way_389" to="3way_389" spreadType="roadCenter" numLanes="1" priority="0"/>
    <edge from="3way_39" id="105_3way_39to3way_59" to="3way_59" spreadType="roadCenter" numLanes="1" priority="1"/>
    <edge from="3way_59" id="105_3way_59to3way_39" to="3way_39" spreadType="roadCenter" numLanes="1" priority="1"/>
    <edge from="3way_39" id="106_3way_39to4way_38" to="4way_38" spreadType="roadCenter" numLanes="1" priority="0"/>
    <edge from="4way_38" id="106_4way_38to3way_39" to="3way_39" spreadType="roadCenter" numLanes="1" priority="0"/>
    <edge from="3way_390" id="107_3way_390to3way_391" to="3way_391" spreadType="roadCenter" numLanes="1" priority="1"/>
    <edge from="3way_391" id="107_3way_391to3way_390" to="3way_390" spreadType="roadCenter" numLanes="1" priority="1"/>
    <edge from="3way_390" id="108_3way_390to4way_370" to="4way_370" spreadType="roadCenter" numLanes="1" priority="0"/>
    <edge from="4way_370" id="108_4way_370to3way_390" to="3way_390" spreadType="roadCenter" numLanes="1" priority="0"/>
    <edge from="3way_391" id="109_3way_391to3way_392" to="3way_392" spreadType="roadCenter" numLanes="1" priority="1"/>
    <edge from="3way_392" id="109_3way_392to3way_391" to="3way_391" spreadType="roadCenter" numLanes="1" priority="1"/>
    <edge from="3way_391" id="110_3way_391to4way_371" to="4way_371" spreadType="roadCenter" numLanes="1" priority="0"/>
    <edge from="4way_371" id="110_4way_371to3way_391" to="3way_391" spreadType="roadCenter" numLanes="1" priority="0"/>
    <edge from="3way_392" id="111_3way_392to3way_393" to="3way_393" spreadType="roadCenter" numLanes="1" priority="1"/>
    <edge from="3way_393" id="111_3way_393to3way_392" to="3way_392" spreadType="roadCenter" numLanes="1" priority="1"/>
    <edge from="3way_392" id="112_3way_392to4way_372" to="4way_372" spreadType="roadCenter" numLanes="1" priority="0"/>
    <edge from="4way_372" id="112_4way_372to3way_392" to="3way_392" spreadType="roadCenter" numLanes="1" priority="0"/>
    <edge from="3way_393" id="113_3way_393to3way_394" to="3way_394" spreadType="roadCenter" numLanes="1" priority="1"/>
    <edge from="3way_394" id="113_3way_394to3way_393" to="3way_393" spreadType="roadCenter" numLanes="1" priority="1"/>
    <edge from="3way_393" id="114_3way_393to4way_373" to="4way_373" spreadType="roadCenter" numLanes="1" priority="0"/>
    <edge from="4way_373" id="114_4way_373to3way_393" to="3way_393" spreadType="roadCenter" numLanes="1" priority="0"/>
    <edge from="3way_394" id="115_3way_394to3way_395" to="3way_395" spreadType="roadCenter" numLanes="1" priority="1"/>
    <edge from="3way_395" id="115_3way_395to3way_394" to="3way_394" spreadType="roadCenter" numLanes="1" priority="1"/>
    <edge from="3way_394" id="116_3way_394to4way_374" to="4way_374" spreadType="roadCenter" numLanes="1" priority="0"/>
    <edge from="4way_374" id="116_4way_374to3way_394" to="3way_394" spreadType="roadCenter" numLanes="1" priority="0"/>
    <edge from="3way_395" id="117_3way_395to3way_396" to="3way_396" spreadType="roadCenter" numLanes="1" priority="1"/>
    <edge from="3way_396" id="117_3way_396to3way_395" to="3way_395" spreadType="roadCenter" numLanes="1" priority="1"/>
    <edge from="3way_395" id="118_3way_395to4way_375" to="4way_375" spreadType="roadCenter" numLanes="1" priority="0"/>
    <edge from="4way_375" id="118_4way_375to3way_395" to="3way_395" spreadType="roadCenter" numLanes="1" priority="0"/>
    <edge from="3way_396" id="119_3way_396to3way_397" to="3way_397" spreadType="roadCenter" numLanes="1" priority="1"/>
    <edge from="3way_397" id="119_3way_397to3way_396" to="3way_396" spreadType="roadCenter" numLanes="1" priority="1"/>
    <edge from="3way_396" id="120_3way_396to4way_376" to="4way_376" spreadType="roadCenter" numLanes="1" priority="0"/>
    <edge from="4way_376" id="120_4way_376to3way_396" to="3way_396" spreadType="roadCenter" numLanes="1" priority="0"/>
    <edge from="3way_397" id="121_3way_397to3way_398" to="3way_398" spreadType="roadCenter" numLanes="1" priority="1"/>
    <edge from="3way_398" id="121_3way_398to3way_397" to="3way_397" spreadType="roadCenter" numLanes="1" priority="1"/>
    <edge from="3way_397" id="122_3way_397to4way_377" to="4way_377" spreadType="roadCenter" numLanes="1" priority="0"/>
    <edge from="4way_377" id="122_4way_377to3way_397" to="3way_397" spreadType="roadCenter" numLanes="1" priority="0"/>
    <edge from="3way_398" id="123_3way_398to4way_378" to="4way_378" spreadType="roadCenter" numLanes="1" priority="0"/>
    <edge from="4way_378" id="123_4way_378to3way_398" to="3way_398" spreadType="roadCenter" numLanes="1" priority="0"/>
    <edge from="3way_4" id="124_3way_4to3way_5" to="3way_5" spreadType="roadCenter" numLanes="1" priority="1"/>
    <edge from="3way_5" id="124_3way_5to3way_4" to="3way_4" spreadType="roadCenter" numLanes="1" priority="1"/>
    <edge from="3way_4" id="125_3way_4to4way_24" to="4way_24" spreadType="roadCenter" numLanes="1" priority="0"/>