<?xml version="1.0" encoding="UTF-8"?>
<nodes xmlns:xsi="http://www.w3.org/2001/XMLSchema-instance" xsi:noNamespaceSchemaLocation="http://sumo.dlr.de/xsd/nodes_file.xsd">
    <node id="3way_1" x="200.00" y="0.00" type="traffic_light" tlLayout="opposites"/>
    <node id="3way_10" x="2000.00" y="0.00" type="traffic_light" tlLayout="opposites"/>
    <node id="3way_100" x="0.00" y="-1000.00" type="traffic_light" tlLayout="opposites"/>
    <node id="3way_11" x="2200.00" y="0.00" type="traffic_light" tlLayout="opposites"/>
    <node id="3way_119" x="3800.00" y="-1000.00" type="traffic_light" tlLayout="opposites"/>
    <node id="3way_12" x="2400.00" y="0.00" type="traffic_light" tlLayout="opposites"/>
    <node id="3way_120" x="0.00" y="-1200.00" type="traffic_light" tlLayout="opposites"/>
    <node id="3way_13" x="2600.00" y="0.00" type="traffic_light" tlLayout="opposites"/>
    <node id="3way_139" x="3800.00" y="-1200.00" type="traffic_light" tlLayout="opposites"/>
    <node id="3way_14" x="2800.00" y="0.00" type="traffic_light" tlLayout="opposites"/>
    <node id="3way_140" x="0.00" y="-1400.00" type="traffic_light" tlLayout="opposites"/>
    <node id="3way_15" x="3000.00" y="0.00" type="traffic_light" tlLayout="opposites"/>
    <node id="3way_159" x="3800.00" y="-1400.00" type="traffic_light" tlLayout="opposites"/>
    <node id="3way_16" x="3200.00" y="0.00" type="traffic_light" tlLayout="opposites"/>
    <node id="3way_160" x="0.00" y="-1600.00" type="traffic_light" tlLayout="opposites"/>
    <node id="3way_17" x="3400.00" y="0.00" type="traffic_light" tlLayout="opposites"/>
    <node id="3way_179" x="3800.00" y="-1600.00" type="traffic_light" tlLayout="opposites"/>
    <node id="3way_18" x="3600.00" y="0.00" type="traffic_light" tlLayout="opposites"/>
    <node id="3way_180" x="0.00" y="-1800.00" type="traffic_light" tlLayout="opposites"/>
    <node id="3way_199" x="3800.00" y="-1800.00" type="traffic_light" tlLayout="opposites"/>
    <node id="3way_2" x="400.00" y="0.00" type="traffic_light" tlLayout="opposites"/>
    <node id="3way_20" x="0.00" y="-200.00" type="traffic_light" tlLayout="opposites"/>
    <node id="3way_200" x="0.00" y="-2000.00" type="traffic_light" tlLayout="opposites"/>
    <node id="3way_219" x="3800.00" y="-2000.00" type="traffic_light" tlLayout="opposites"/>
    <node id="3way_220" x="0.00" y="-2200.00" type="traffic_light" tlLayout="opposites"/>
    <node id="3way_239" x="3800.00" y="-2200.00" type="traffic_light" tlLayout="opposites"/>
    <node id="3way_240" x="0.00" y="-2400.00" type="traffic_light" tlLayout="opposites"/>
    <node id="3way_259" x="3800.00" y="-2400.00" type="traffic_light" tlLayout="opposites"/>
    <node id="3way_260" x="0.00" y="-2600.00" type="traffic_light" tlLayout="opposites"/>
    <node id="3way_279" x="3800.00" y="-2600.00" type="traffic_light" tlLayout="opposites"/>
    <node id="3way_280" x="0.00" y="-2800.00" type="traffic_light" tlLayout="opposites"/>
    <node id="3way_299" x="3800.00" y="-2800.00" type="traffic_light" tlLayout="opposites"/>
    <node id="3way_3" x="600.00" y="0.00" type="traffic_light" tlLayout="opposites"/>
    <node id="3way_300" x="0.00" y="-3000.00" type="traffic_light" tlLayout="opposites"/>
    <node id="3way_319" x="3800.00" y="-3000.00" type="traffic_light" tlLayout="opposites"/>
    <node id="3way_320" x="0.00" y="-3200.00" type="traffic_light" tlLayout="opposites"/>
    <node id="3way_339" x="3800.00" y="-3200.00" type="traffic_light" tlLayout="opposites"/>
    <node id="3way_340" x="0.00" y="-3400.00" type="traffic_light" tlLayout="opposites"/>
    <node id="3way_359" x="3800.00" y="-3400.00" type="traffic_light" tlLayout="opposites"/>
    <node id="3way_360" x="0.00" y="-3600.00" type="traffic_light" tlLayout="opposites"/>
    <node id="3way_379" x="3800.00" y="-3600.00" type="traffic_light" tlLayout="opposites"/>
    <node id="3way_381" x="200.00" y="-3800.00" type="traffic_light" tlLayout="opposites"/>
    <node id="3way_382" x="400.00" y="-3800.00" type="traffic_light" tlLayout="opposites"/>
    <node id="3way_383" x="600.00" y="-3800.00" type="traffic_light" tlLayout="opposites"/>
    <node id="3way_384" x="800.00" y="-3800.00" type="traffic_light" tlLayout="opposites"/>
    <node id="3way_385" x="1000.00" y="-3800.00" type="traffic_light" tlLayout="opposites"/>
    <node id="3way_386" x="1200.00" y="-3800.00" type="traffic_light" tlLayout="opposites"/>
    <node id="3way_387" x="1400.00" y="-3800.00" type="traffic_light" tlLayout="opposites"/>
    <node id="3way_388" x="1600.00" y="-3800.00" type="traffic_light" tlLayout="opposites"/>
    <node id="3way_389" x="1800.00" y="-3800.00" type="traffic_light" tlLayout="opposites"/>
    <node id="3way_39" x="3800.00" y="-200.00" type="traffic_light" tlLayout="opposites"/>
    <node id="3way_390" x="2000.00" y="-3800.00" type="traffic_light" tlLayout="opposites"/>
    <node id="3way_391" x="2200.00" y="-3800.00" type="traffic_light" tlLayout="opposites"/>
    <node id="3way_392" x="2400.00" y="-3800.00" type="traffic_light" tlLayout="opposites"/>
    <node id="3way_393" x="2600.00" y="-3800.00" type="traffic_light" tlLayout="opposites"/>
    <node id="3way_394" x="2800.00" y="-3800.00" type="traffic_light" tlLayout="opposites"/>
    <node id="3way_395" x="3000.00" y="-3800.00" type="traffic_light" tlLayout="opposites"/>
    <node id="3way_396" x="3200.00" y="-3800.00" type="traffic_light" tlLayout="opposites"/>
    <node id="3way_397" x="3400.00" y="-3800.00" type="traffic_light" tlLayout="opposites"/>
    <node id="3way_398" x="3600.00" y="-3800.00" type="traffic_light" tlLayout="opposites"/>
    <node id="3way_4" x="800.00" y="0.00" type="traffic_light" tlLayout="opposites"/>
    <node id="3way_40" x="0.00" y="-400.00" type="traffic_light" tlLayout="opposites"/>
    <node id="3way_5" x="1000.00" y="0.00" type="traffic_light" tlLayout="opposites"/>
    <node id="3way_59" x="3800.00" y="-400.00" type="traffic_light" tlLayout="opposites"/>
    <node id="3way_6" x="1200.00" y="0.00" type="traffic_light" tlLayout="opposites"/>
    <node id="3way_60" x="0.00" y="-600.00" type="traffic_light" tlLayout="opposites"/>
    <node id="3way_7" x="1400.00" y="0.00" type="traffic_light" tlLayout="opposites"/>
    <node id="3way_79" x="3800.00" y="-600.00" type="traffic_light" tlLayout="opposites"/>
    <node id="3way_8" x="1600.00" y="0.00" type="traffic_light" tlLayout="opposites"/>
    <node id="3way_80" x="0.00" y="-800.00" type="traffic_light" tlLayout="opposites"/>
    <node id="3way_9" x="1800.00" y="0.00" type="traffic_light" tlLayout="opposites"/>
    <node id="3way_99" x="3800.00" y="-800.00" type="traffic_light" tlLayout="opposites"/>
    <node id="4way_101" x="200.00" y="-1000.00" type="traffic_light" tlLayout="opposites"/>
    <node id="4way_102" x="400.00" y="-1000.00" type="traffic_light" tlLayout="opposites"/>
    <node id="4way_103" x="600.00" y="-1000.00" type="traffic_light" tlLayout="opposites"/>
    <node id="4way_104" x="800.00" y="-1000.00" type="traffic_light" tlLayout="opposites"/>
    <node id="4way_105" x="1000.00" y="-1000.00" type="traffic_light" tlLayout="opposites"/>
    <node id="4way_106" x="1200.00" y="-1000.00" type="traffic_light" tlLayout="opposites"/>
    <node id="4way_107" x="1400.00" y="-1000.00" type="traffic_light" tlLayout="opposites"/>
    <node id="4way_108" x="1600.00" y="-1000.00" type="traffic_light" tlLayout="opposites"/>
    <node id="4way_109" x="1800.00" y="-1000.00" type="traffic_light" tlLayout="opposites"/>
    <node id="4way_110" x="2000.00" y="-1000.00" type="traffic_light" tlLayout="opposites"/>
    <node id="4way_111" x="2200.00" y="-1000.00" type="traffic_light" tlLayout="opposites"/>
    <node id="4way_112" x="2400.00" y="-1000.00" type="traffic_light" tlLayout="opposites"/>
    <node id="4way_113" x="2600.00" y="-1000.00" type="traffic_light" tlLayout="opposites"/>
    <node id="4way_114" x="2800.00" y="-1000.00" type="traffic_light" tlLayout="opposites"/>
    <node id="4way_115" x="3000.00" y="-1000.00" type="traffic_light" tlLayout="opposites"/>
    <node id="4way_116" x="3200.00" y="-1000.00" type="traffic_light" tlLayout="opposites"/>
    <node id="4way_117" x="3400.00" y="-1000.00" type="traffic_light" tlLayout="opposites"/>
    <node id="4way_118" x="3600.00" y="-1000.00" type="traffic_light" tlLayout="opposites"/>
    <node id="4way_121" x="200.00" y="-1200.00" type="traffic_light" tlLayout="opposites"/>
    <node id="4way_122" x="400.00" y="-1200.00" type="traffic_light" tlLayout="opposites"/>
    <node id="4way_123" x="600.00" y="-1200.00" type="traffic_light" tlLayout="opposites"/>
    <node id="4way_124" x="800.00" y="-1200.00" type="traffic_light" tlLayout="opposites"/>
    <node id="4way_125" x="1000.00" y="-1200.00" type="traffic_light" tlLayout="opposites"/>
    <node id="4way_126" x="1200.00" y="-1200.00" type="traffic_light" tlLayout="opposites"/>
    <node id="4way_127" x="1400.00" y="-1200.00" type="traffic_light" tlLayout="opposites"/>
    <node id="4way_128" x="1600.00" y="-1200.00" type="traffic_light" tlLayout="opposites"/>
    <node id="4way_129" x="1800.00" y="-1200.00" type="traffic_light" tlLayout="opposites"/>
    <node id="4way_130" x="2000.00" y="-1200.00" type="traffic_light" tlLayout="opposites"/>
    <node id="4way_131" x="2200.00" y="-1200.00" type="traffic_light" tlLayout="opposites"/>
    <node id="4way_132" x="2400.00" y="-1200.00" type="traffic_light" tlLayout="opposites"/>
    <node id="4way_133" x="2600.00" y="-1200.00" type="traffic_light" tlLayout="opposites"/>
    <node id="4way_134" x="2800.00" y="-1200.00" type="traffic_light" tlLayout="opposites"/>
    <node id="4way_135" x="3000.00" y="-1200.00" type="traffic_light" tlLayout="opposites"/>
    <node id="4way_136" x="3200.00" y="-1200.00" type="traffic_light" tlLayout="opposites"/>
    <node id="4way_137" x="3400.00" y="-1200.00" type="traffic_light" tlLayout="opposites"/>
    <node id="4way_138" x="3600.00" y="-1200.00" type="traffic_light" tlLayout="opposites"/>
    <node id="4way_141" x="200.00" y="-1400.00" type="traffic_light" tlLayout="opposites"/>
    <node id="4way_142" x="400.00" y="-1400.00" type="traffic_light" tlLayout="opposites"/>
    <node id="4way_143" x="600.00" y="-1400.00" type="traffic_light" tlLayout="opposites"/>
    <node id="4way_144" x="800.00" y="-1400.00" type="traffic_light" tlLayout="opposites"/>
    <node id="4way_145" x="1000.00" y="-1400.00" type="traffic_light" tlLayout="opposites"/>
    <node id="4way_146" x="1200.00" y="-1400.00" type="traffic_light" tlLayout="opposites"/>
    <node id="4way_147" x="1400.00" y="-1400.00" type="traffic_light" tlLayout="opposites"/>
    <node id="4way_148" x="1600.00" y="-1400.00" type="traffic_light" tlLayout="opposites"/>
    <node id="4way_149" x="1800.00" y="-1400.00" type="traffic_light" tlLayout="opposites"/>
    <node id="4way_150" x="2000.00" y="-1400.00" type="traffic_light" tlLayout="opposites"/>
    <node id="4way_151" x="2200.00" y="-1400.00" type="traffic_light" tlLayout="opposites"/>
    <node id="4way_152" x="2400.00" y="-1400.00" type="traffic_light" tlLayout="opposites"/>
    <node id="4way_153" x="2600.00" y="-1400.00" type="traffic_light" tlLayout="opposites"/>
    <node id="4way_154" x="2800.00" y="-1400.00" type="traffic_light" tlLayout="opposites"/>
    <node id="4way_155" x="3000.00" y="-1400.00" type="traffic_light" tlLayout="opposites"/>
    <node id="4way_156" x="3200.00" y="-1400.00" type="traffic_light" tlLayout="opposites"/>
    <node id="4way_157" x="3400.00" y="-1400.00" type="traffic_light" tlLayout="opposites"/>
    <node id="4way_158" x="3600.00" y="-1400.00" type="traffic_light" tlLayout="opposites"/>
    <node id="4way_161" x="200.00" y="-1600.00" type="traffic_light" tlLayout="opposites"/>
    <node id="4way_162" x="400.00" y="-1600.00" type="traffic_light" tlLayout="opposites"/>
    <node id="4way_163" x="600.00" y="-1600.00" type="traffic_light" tlLayout="opposites"/>
    <node id="4way_164" x="800.00" y="-1600.00" type="traffic_light" tlLayout="opposites"/>
    <node id="4way_165" x="1000.00" y="-1600.00" type="traffic_light" tlLayout="opposites"/>
    <node id="4way_166" x="1200.00" y="-1600.00" type="traffic_light" tlLayout="opposites"/>
    <node id="4way_167" x="1400.00" y="-1600.00" type="traffic_light" tlLayout="opposites"/>
    <node id="4way_168" x="1600.00" y="-1600.00" type="traffic_light" tlLayout="opposites"/>
    <node id="4way_169" x="1800.00" y="-1600.00" type="traffic_light" tlLayout="opposites"/>
    <node id="4way_170" x="2000.00" y="-1600.00" type="traffic_light" tlLayout="opposites"/>
    <node id="4way_171" x="2200.00" y="-1600.00" type="traffic_light" tlLayout="opposites"/>
    <node id="4way_172" x="2400.00" y="-1600.00" type="traffic_light" tlLayout="opposites"/>
    <node id="4way_173" x="2600.00" y="-1600.00" type="traffic_light" tlLayout="opposites"/>
    <node id="4way_174" x="2800.00" y="-1600.00" type="traffic_light" tlLayout="opposites"/>
    <node id="4way_175" x="3000.00" y="-1600.00" type="traffic_light" tlLayout="opposites"/>
    <node id="4way_176" x="3200.00" y="-1600.00" type="traffic_light" tlLayout="opposites"/>
    <node id="4way_177" x="3400.00" y="-1600.00" type="traffic_light" tlLayout="opposites"/>
    <node id="4way_178" x="3600.00" y="-1600.00" type="traffic_light" tlLayout="opposites"/>
    <node id="4way_181" x="200.00" y="-1800.00" type="traffic_light" tlLayout="opposites"/>
    <node id="4way_182" x="400.00" y="-1800.00" type="traffic_light" tlLayout="opposites"/>
    <node id="4way_183" x="600.00" y="-1800.00" type="traffic_light" tlLayout="opposites"/>
    <node id="4way_184" x="800.00" y="-1800.00" type="traffic_light" tlLayout="opposites"/>
    <node id="4way_185" x="1000.00" y="-1800.00" type="traffic_light" tlLayout="opposites"/>
    <node id="4way_186" x="1200.00" y="-1800.00" type="traffic_light" tlLayout="opposites"/>
    <node id="4way_187" x="1400.00" y="-1800.00" type="traffic_light" tlLayout="opposites"/>
    <node id="4way_188" x="1600.00" y="-1800.00" type="traffic_light" tlLayout="opposites"/>
    <node id="4way_189" x="1800.00" y="-1800.00" type="traffic_light" tlLayout="opposites"/>
    <node id="4way_190" x="2000.00" y="-1800.00" type="traffic_light" tlLayout="opposites"/>
    <node id="4way_191" x="2200.00" y="-1800.00" type="traffic_light" tlLayout="opposites"/>
    <node id="4way_192" x="2400.00" y="-1800.00" type="traffic_light" tlLayout="opposites"/>
    <node id="4way_193" x="2600.00" y="-1800.00" type="traffic_light" tlLayout="opposites"/>
    <node id="4way_194" x="2800.00" y="-1800.00" type="traffic_light" tlLayout="opposites"/>
    <node id="4way_195" x="3000.00" y="-1800.00" type="traffic_light" tlLayout="opposites"/>
    <node id="4way_196" x="3200.00" y="-1800.00" type="traffic_light" tlLayout="opposites"/>
    <node id="4way_197" x="3400.00" y="-1800.00" type="traffic_light" tlLayout="opposites"/>
    <node id="4way_198" x="3600.00" y="-1800.00" type="traffic_light" tlLayout="opposites"/>
    <node id="4way_201" x="200.00" y="-2000.00" type="traffic_light" tlLayout="opposites"/>
    <node id="4way_202" x="400.00" y="-2000.00" type="traffic_light" tlLayout="opposites"/>
    <node id="4way_203" x="600.00" y="-2000.00" type="traffic_light" tlLayout="opposites"/>
    <node id="4way_204" x="800.00" y="-2000.00" type="traffic_light" tlLayout="opposites"/>
    <node id="4way_205" x="1000.00" y="-2000.00" type="traffic_light" tlLayout="opposites"/>
    <node id="4way_206" x="1200.00" y="-2000.00" type="traffic_light" tlLayout="opposites"/>
    <node id="4way_207" x="1400.00" y="-2000.00" type="traffic_light" tlLayout="opposites"/>
    <node id="4way_208" x="1600.00" y="-2000.00" type="traffic_light" tlLayout="opposites"/>
    <node id="4way_209" x="1800.00" y="-2000.00" type="traffic_light" tlLayout="opposites"/>
    <node id="4way_21" x="200.00" y="-200.00" type="traffic_light" tlLayout="opposites"/>
    <node id="4way_210" x="2000.00" y="-2000.00" type="traffic_light" tlLayout="opposites"/>
    <node id="4way_211" x="2200.00" y="-2000.00" type="traffic_light" tlLayout="opposites"/>
    <node id="4way_212" x="2400.00" y="-2000.00" type="traffic_light" tlLayout="opposites"/>
    <node id="4way_213" x="2600.00" y="-2000.00" type="traffic_light" tlLayout="opposites"/>
    <node id="4way_214" x="2800.00" y="-2000.00" type="traffic_light" tlLayout="opposites"/>
    <node id="4way_215" x="3000.00" y="-2000.00" type="traffic_light" tlLayout="opposites"/>
    <node id="4way_216" x="3200.00" y="-2000.00" type="traffic_light" tlLayout="opposites"/>
    <node id="4way_217" x="3400.00" y="-2000.00" type="traffic_light" tlLayout="opposites"/>
    <node id="4way_218" x="3600.00" y="-2000.00" type="traffic_light" tlLayout="opposites"/>
    <node id="4way_22" x="400.00" y="-200.00" type="traffic_light" tlLayout="opposites"/>
    <node id="4way_221" x="200.00" y="-2200.00" type="traffic_light" tlLayout="opposites"/>
    <node id="4way_222" x="400.00" y="-2200.00" type="traffic_light" tlLayout="opposites"/>
    <node id="4way_223" x="600.00" y="-2200.00" type="traffic_light" tlLayout="opposites"/>
    <node id="4way_224" x="800.00" y="-2200.00" type="traffic_light" tlLayout="opposites"/>
    <node id="4way_225" x="1000.00" y="-2200.00" type="traffic_light" tlLayout="opposites"/>
    <node id="4way_226" x="1200.00" y="-2200.00" type="traffic_light" tlLayout="opposites"/>
    <node id="4way_227" x="1400.00" y="-2200.00" type="traffic_light" tlLayout="opposites"/>
    <node id="4way_228" x="1600.00" y="-2200.00" type="traffic_light" tlLayout="opposites"/>
    <node id="4way_229" x="1800.00" y="-2200.00" type="traffic_light" tlLayout="opposites"/>
    <node id="4way_23" x="600.00" y="-200.00" type="traffic_light" tlLayout="opposites"/>
    <node id="4way_230" x="2000.00" y="-2200.00" type="traffic_light" tlLayout="opposites"/>
    <node id="4way_231" x="2200.00" y="-2200.00" type="traffic_light" tlLayout="opposites"/>
    <node id="4way_232" x="2400.00" y="-2200.00" type="traffic_light" tlLayout="opposites"/>
    <node id="4way_233" x="2600.00" y="-2200.00" type="traffic_light" tlLayout="opposites"/>
    <node id="4way_234" x="2800.00" y="-2200.00" type="traffic_light" tlLayout="opposites"/>
    <node id="4way_235" x="3000.00" y="-2200.00" type="traffic_light" tlLayout="opposites"/>
    <node id="4way_236" x="3200.00" y="-2200.00" type="traffic_light" tlLayout="opposites"/>
    <node id="4way_237" x="3400.00" y="-2200.00" type="traffic_light" tlLayout="opposites"/>
    <node id="4way_238" x="3600.00" y="-2200.00" type="traffic_light" tlLayout="opposites"/>
    <node id="4way_24" x="800.00" y="-200.00" type="traffic_light" tlLayout="opposites"/>
    <node id="4way_241" x="200.00" y="-2400.00" type="traffic_light" tlLayout="opposites"/>
    <node id="4way_242" x="400.00" y="-2400.00" type="traffic_light" tlLayout="opposites"/>
    <node id="4way_243" x="600.00" y="-2400.00" type="traffic_light" tlLayout="opposites"/>
    <node id="4way_244" x="800.00" y="-2400.00" type="traffic_light" tlLayout="opposites"/>
    <node id="4way_245" x="1000.00" y="-2400.00" type="traffic_light" tlLayout="opposites"/>
    <node id="4way_246" x="1200.00" y="-2400.00" type="traffic_light" tlLayout="opposites"/>
    <node id="4way_247" x="1400.00" y="-2400.00" type="traffic_light" tlLayout="opposites"/>
    <node id="4way_248" x="1600.00" y="-2400.00" type="traffic_light" tlLayout="opposites"/>
    <node id="4way_249" x="1800.00" y="-2400.00" type="traffic_light" tlLayout="opposites"/>
    <node id="4way_25" x="1000.00" y="-200.00" type="traffic_light" tlLayout="opposites"/>
    <node id="4way_250" x="2000.00" y="-2400.00" type="traffic_light" tlLayout="opposites"/>
    <node id="4way_251" x="2200.00" y="-2400.00" type="traffic_light" tlLayout="opposites"/>
    <node id="4way_252" x="2400.00" y="-2400.00" type="traffic_light" tlLayout="opposites"/>
    <node id="4way_253" x="2600.00" y="-2400.00" type="traffic_light" tlLayout="opposites"/>
    <node id="4way_254" x="2800.00" y="-2400.00" type="traffic_light" tlLayout="opposites"/>
    <node id="4way_255" x="3000.00" y="-2400.00" type="traffic_light" tlLayout="opposites"/>
    <node id="4way_256" x="3200.00" y="-2400.00" type="traffic_light" tlLayout="opposites"/>
    <node id="4way_257" x="3400.00" y="-2400.00" type="traffic_light" tlLayout="opposites"/>
    <node id="4way_258" x="3600.00" y="-2400.00" type="traffic_light" tlLayout="opposites"/>
    <node id="4way_26" x="1200.00" y="-200.00" type="traffic_light" tlLayout="opposites"/>
    <node id="4way_261" x="200.00" y="-2600.00" type="traffic_light" tlLayout="opposites"/>
    <node id="4way_262" x="400.00" y="-2600.00" type="traffic_light" tlLayout="opposites"/>
    <node id="4way_263" x="600.00" y="-2600.00" type="traffic_light" tlLayout="opposites"/>
    <node id="4way_264" x="800.00" y="-2600.00" type="traffic_light" tlLayout="opposites"/>
    <node id="4way_265" x="1000.00" y="-2600.00" type="traffic_light" tlLayout="opposites"/>
    <node id="4way_266" x="1200.00" y="-2600.00" type="traffic_light" tlLayout="opposites"/>
    <node id="4way_267" x="1400.00" y="-2600.00" type="traffic_light" tlLayout="opposites"/>
    <node id="4way_268" x="1600.00" y="-2600.00" type="traffic_light" tlLayout="opposites"/>
    <node id="4way_269" x="1800.00" y="-2600.00" type="traffic_light" tlLayout="opposites"/>
    <node id="4way_27" x="1400.00" y="-200.00" type="traffic_light" tlLayout="opposites"/>
    <node id="4way_270" x="2000.00" y="-2600.00" type="traffic_light" tlLayout="opposites"/>
    <node id="4way_271" x="2200.00" y="-2600.00" type="traffic_light" tlLayout="opposites"/>
    <node id="4way_272" x="2400.00" y="-2600.00" type="traffic_light" tlLayout="opposites"/>
    <node id="4way_273" x="2600.00" y="-2600.00" type="traffic_light" tlLayout="opposites"/>
    <node id="4way_274" x="2800.00" y="-2600.00" type="traffic_light" tlLayout="opposites"/>
    <node id="4way_275" x="3000.00" y="-2600.00" type="traffic_light" tlLayout="opposites"/>
    <node id="4way_276" x="3200.00" y="-2600.00" type="traffic_light" tlLayout="opposites"/>
    <node id="4way_277" x="3400.00" y="-2600.00" type="traffic_light" tlLayout="opposites"/>
    <node id="4way_278" x="3600.00" y="-2600.00" type="traffic_light" tlLayout="opposites"/>
    <node id="4way_28" x="1600.00" y="-200.00" type="traffic_light" tlLayout="opposites"/>
    <node id="4way_281" x="200.00" y="-2800.00" type="traffic_light" tlLayout="opposites"/>
    <node id="4way_282" x="400.00" y="-2800.00" type="traffic_light" tlLayout="opposites"/>
    <node id="4way_283" x="600.00" y="-2800.00" type="traffic_light" tlLayout="opposites"/>
    <node id="4way_284" x="800.00" y="-2800.00" type="traffic_light" tlLayout="opposites"/>
    <node id="4way_285" x="1000.00" y="-2800.00" type="traffic_light" tlLayout="opposites"/>
    <node id="4way_286" x="1200.00" y="-2800.00" type="traffic_light" tlLayout="opposites"/>
    <node id="4way_287" x="1400.00" y="-2800.00" type="traffic_light" tlLayout="opposites"/>
    <node id="4way_288" x="1600.00" y="-2800.00" type="traffic_light" tlLayout="opposites"/>
    <node id="4way_289" x="1800.00" y="-2800.00" type="traffic_light" tlLayout="opposites"/>
    <node id="4way_29" x="1800.00" y="-200.00" type="traffic_light" tlLayout="opposites"/>
    <node id="4way_290" x="2000.00" y="-2800.00" type="traffic_light" tlLayout="opposites"/>
    <node id="4way_291" x="2200.00" y="-2800.00" type="traffic_light" tlLayout="opposites"/>
    <node id="4way_292" x="2400.00" y="-2800.00" type="traffic_light" tlLayout="opposites"/>
    <node id="4way_293" x="2600.00" y="-2800.00" type="traffic_light" tlLayout="opposites"/>
    <node id="4way_294" x="2800.00" y="-2800.00" type="traffic_light" tlLayout="opposites"/>
    <node id="4way_295" x="3000.00" y="-2800.00" type="traffic_light" tlLayout="opposites"/>
    <node id="4way_296" x="3200.00" y="-2800.00" type="traffic_light" tlLayout="opposites"/>
    <node id="4way_297" x="3400.00" y="-2800.00" type="traffic_light" tlLayout="opposites"/>
    <node id="4way_298" x="3600.00" y="-2800.00" type="traffic_light" tlLayout="opposites"/>
    <node id="4way_30" x="2000.00" y="-200.00" type="traffic_light" tlLayout="opposites"/>
    <node id="4way_301" x="200.00" y="-3000.00" type="traffic_light" tlLayout="opposites"/>
    <node id="4way_302" x="400.00" y="-3000.00" type="traffic_light" tlLayout="opposites"/>
    <node id="4way_303" x="600.00" y="-3000.00" type="traffic_light" tlLayout="opposites"/>
    <node id="4way_304" x="800.00" y="-3000.00" type="traffic_light" tlLayout="opposites"/>
    <node id="4way_305" x="1000.00" y="-3000.00" type="traffic_light" tlLayout="opposites"/>
    <node id="4way_306" x="1200.00" y="-3000.00" type="traffic_light" tlLayout="opposites"/>
    <node id="4way_307" x="1400.00" y="-3000.00" type="traffic_light" tlLayout="opposites"/>
    <node id="4way_308" x="1600.00" y="-3000.00" type="traffic_light" tlLayout="opposites"/>
    <node id="4way_309" x="1800.00" y="-3000.00" type="traffic_light" tlLayout="opposites"/>
    <node id="4way_31" x="2200.00" y="-200.00" type="traffic_light" tlLayout="opposites"/>
    <node id="4way_310" x="2000.00" y="-3000.00" type="traffic_light" tlLayout="opposites"/>
    <node id="4way_311" x="2200.00" y="-3000.00" type="traffic_light" tlLayout="opposites"/>
    <node id="4way_312" x="2400.00" y="-3000.00" type="traffic_light" tlLayout="opposites"/>
    <node id="4way_313" x="2600.00" y="-3000.00" type="traffic_light" tlLayout="opposites"/>
    <node id="4way_314" x="2800.00" y="-3000.00" type="traffic_light" tlLayout="opposites"/>
    <node id="4way_315" x="3000.00" y="-3000.00" type="traffic_light" tlLayout="opposites"/>
    <node id="4way_316" x="3200.00" y="-3000.00" type="traffic_light" tlLayout="opposites"/>
    <node id="4way_317" x="3400.00" y="-3000.00" type="traffic_light" tlLayout="opposites"/>
    <node id="4way_318" x="3600.00" y="-3000.00" type="traffic_light" tlLayout="opposites"/>
    <node id="4way_32" x="2400.00" y="-200.00" type="traffic_light" tlLayout="opposites"/>
    <node id="4way_321" x="200.00" y="-3200.00" type="traffic_light" tlLayout="opposites"/>
    <node id="4way_322" x="400.00" y="-3200.00" type="traffic_light" tlLayout="opposites"/>
    <node id="4way_323" x="600.00" y="-3200.00" type="traffic_light" tlLayout="opposites"/>
    <node id="4way_324" x="800.00" y="-3200.00" type="traffic_light" tlLayout="opposites"/>
    <node id="4way_325" x="1000.00" y="-3200.00" type="traffic_light" tlLayout="opposites"/>
    <node id="4way_326" x="1200.00" y="-3200.00" type="traffic_light" tlLayout="opposites"/>
    <node id="4way_327" x="1400.00" y="-3200.00" type="traffic_light" tlLayout="opposites"/>
    <node id="4way_328" x="1600.00" y="-3200.00" type="traffic_light" tlLayout="opposites"/>
    <node id="4way_329" x="1800.00" y="-3200.00" type="traffic_light" tlLayout="opposites"/>
    <node id="4way_33" x="2600.00" y="-200.00" type="traffic_light" tlLayout="opposites"/>
    <node id="4way_330" x="2000.00" y="-3200.00" type="traffic_light" tlLayout="opposites"/>
    <node id="4way_331" x="2200.00" y="-3200.00" type="traffic_light" tlLayout="opposites"/>
    <node id="4way_332" x="2400.00" y="-3200.00" type="traffic_light" tlLayout="opposites"/>
    <node id="4way_333" x="2600.00" y="-3200.00" type="traffic_light" tlLayout="opposites"/>
    <node id="4way_334" x="2800.00" y="-3200.00" type="traffic_light" tlLayout="opposites"/>
    <node id="4way_335" x="3000.00" y="-3200.00" type="traffic_light" tlLayout="opposites"/>
    <node id="4way_336" x="3200.00" y="-3200.00" type="traffic_light" tlLayout="opposites"/>
    <node id="4way_337" x="3400.00" y="-3200.00" type="traffic_light" tlLayout="opposites"/>
    <node id="4way_338" x="3600.00" y="-3200.00" type="traffic_light" tlLayout="opposites"/>
    <node id="4way_34" x="2800.00" y="-200.00" type="traffic_light" tlLayout="opposites"/>
    <node id="4way_341" x="200.00" y="-3400.00" type="traffic_light" tlLayout="opposites"/>
    <node id="4way_342" x="400.00" y="-3400.00" type="traffic_light" tlLayout="opposites"/>
    <node id="4way_343" x="600.00" y="-3400.00" type="traffic_light" tlLayout="opposites"/>
    <node id="4way_344" x="800.00" y="-3400.00" type="traffic_light" tlLayout="opposites"/>
    <node id="4way_345" x="1000.00" y="-3400.00" type="traffic_light" tlLayout="opposites"/>
    <node id="4way_346" x="1200.00" y="-3400.00" type="traffic_light" tlLayout="opposites"/>
    <node id="4way_347" x="1400.00" y="-3400.00" type="traffic_light" tlLayout="opposites"/>
    <node id="4way_348" x="1600.00" y="-3400.00" type="traffic_light" tlLayout="opposites"/>
    <node id="4way_349" x="1800.00" y="-3400.00" type="traffic_light" tlLayout="opposites"/>
    <node id="4way_35" x="3000.00" y="-200.00" type="traffic_light" tlLayout="opposites"/>
    <node id="4way_350" x="2000.00" y="-3400.00" type="traffic_light" tlLayout="opposites"/>
    <node id="4way_351" x="2200.00" y="-3400.00" type="traffic_light" tlLayout="opposites"/>
    <node id="4way_352" x="2400.00" y="-3400.00" type="traffic_light" tlLayout="opposites"/>
    <node id="4way_353" x="2600.00" y="-3400.00" type="traffic_light" tlLayout="opposites"/>
    <node id="4way_354" x="2800.00" y="-3400.00" type="traffic_light" tlLayout="opposites"/>
    <node id="4way_355" x="3000.00" y="-3400.00" type="traffic_light" tlLayout="opposites"/>
    <node id="4way_356" x="3200.00" y="-3400.00" type="traffic_light" tlLayout="opposites"/>
    <node id="4way_357" x="3400.00" y="-3400.00" type="traffic_light" tlLayout="opposites"/>
    <node id="4way_358" x="3600.00" y="-3400.00" type="traffic_light" tlLayout="opposites"/>
    <node id="4way_36" x="3200.00" y="-200.00" type="traffic_light" tlLayout="opposites"/>
    <node id="4way_361" x="200.00" y="-3600.00" type="traffic_light" tlLayout="opposites"/>