<routes xmlns:xsi="http://www.w3.org/2001/XMLSchema-instance" xsi:noNamespaceSchemaLocation="http://sumo.dlr.de/xsd/routes_file.xsd">
<trip id="0" depart="0.0" fromJunction="4way_24" toJunction="4way_36"/>
<trip id="1" depart="0.238" fromJunction="4way_36" toJunction="4way_23"/>
<trip id="2" depart="0.476" fromJunction="4way_37" toJunction="3way_7"/>
<trip id="3" depart="0.714" fromJunction="4way_12" toJunction="3way_7"/>
<trip id="4" depart="0.952" fromJunction="3way_21" toJunction="4way_33"/>
<trip id="5" depart="1.19" fromJunction="4way_29" toJunction="4way_11"/>
<trip id="6" depart="1.428" fromJunction="4way_19" toJunction="4way_9"/>
<trip id="7" depart="1.666" fromJunction="4way_25" toJunction="3way_1"/>
<trip id="8" depart="1.904" fromJunction="4way_39" toJunction="4way_11"/>
<trip id="9" depart="2.142" fromJunction="4way_11" toJunction="4way_40"/>
<trip id="10" depart="2.38" fromJunction="4way_11" toJunction="4way_8"/>
<trip id="11" depart="2.618" fromJunction="4way_30" toJunction="3way_13"/>
<trip id="12" depart="2.856" fromJunction="4way_26" toJunction="3way_20"/>
<trip id="13" depart="3.094" fromJunction="3way_14" toJunction="4way_29"/>
<trip id="14" depart="3.332" fromJunction="4way_38" toJunction="3way_46"/>
<trip id="15" depart="3.57" fromJunction="4way_9" toJunction="4way_8"/>
<trip id="16" depart="3.808" fromJunction="4way_23" toJunction="3way_1"/>
<trip id="17" depart="4.045999999999999" fromJunction="4way_10" toJunction="4way_26"/>
<trip id="18" depart="4.284" fromJunction="3way_7" toJunction="3way_28"/>
<trip id="19" depart="4.522" fromJunction="3way_3" toJunction="4way_17"/>
<trip id="20" depart="4.76" fromJunction="3way_13" toJunction="3way_41"/>
<trip id="21" depart="4.997999999999999" fromJunction="3way_28" toJunction="3way_43"/>
<trip id="22" depart="5.236" fromJunction="3way_7" toJunction="4way_9"/>
<trip id="23" depart="5.474" fromJunction="3way_5" toJunction="4way_40"/>
<trip id="24" depart="5.712" fromJunction="3way_27" toJunction="3way_41"/>
<trip id="25" depart="5.949999999999999" fromJunction="3way_46" toJunction="4way_37"/>
<trip id="26" depart="6.188" fromJunction="3way_47" toJunction="4way_8"/>
<trip id="27" depart="6.426" fromJunction="3way_5" toJunction="3way_27"/>
<trip id="28" depart="6.664" fromJunction="3way_20" toJunction="4way_37"/>
<trip id="29" depart="6.901999999999999" fromJunction="3way_28" toJunction="3way_34"/>
<trip id="30" depart="7.14" fromJunction="3way_5" toJunction="4way_18"/>
<trip id="31" depart="7.378" fromJunction="3way_5" toJunction="4way_25"/>
<trip id="32" depart="7.616" fromJunction="4way_15" toJunction="4way_33"/>
<trip id="33" depart="7.853999999999999" fromJunction="4way_23" toJunction="4way_33"/>
<trip id="34" depart="8.091999999999999" fromJunction="3way_2" toJunction="4way_31"/>
<trip id="35" depart="8.33" fromJunction="3way_13" toJunction="3way_45"/>
<trip id="36" depart="8.568" fromJunction="3way_13" toJunction="3way_44"/>
<trip id="37" depart="8.806" fromJunction="3way_14" toJunction="3way_43"/>
<trip id="38" depart="9.044" fromJunction="4way_17" toJunction="3way_3"/>
<trip id="39" depart="9.282" fromJunction="3way_46" toJunction="4way_9"/>
<trip id="40" depart="9.52" fromJunction="3way_5" toJunction="4way_29"/>
<trip id="41" depart="9.758" fromJunction="4way_19" toJunction="4way_9"/>
<trip id="42" depart="9.995999999999999" fromJunction="4way_10" toJunction="3way_43"/>
<trip id="43" depart="10.234" fromJunction="4way_24" toJunction="3way_13"/>
<trip id="44" depart="10.472" fromJunction="3way_34" toJunction="3way_44"/>
<trip id="45" depart="10.709999999999999" fromJunction="3way_1" toJunction="4way_16"/>
<trip id="46" depart="10.948" fromJunction="3way_1" toJunction="4way_25"/>
<trip id="47" depart="11.186" fromJunction="3way_45" toJunction="4way_10"/>
<trip id="48" depart="11.424" fromJunction="4way_33" toJunction="4way_31"/>
<trip id="49" depart="11.661999999999999" fromJunction="4way_9" toJunction="3way_46"/>
<trip id="50" depart="11.899999999999999" fromJunction="4way_9" toJunction="4way_16"/>
<trip id="51" depart="12.138" fromJunction="4way_26" toJunction="3way_47"/>
<trip id="52" depart="12.376" fromJunction="4way_32" toJunction="4way_8"/>
<trip id="53" depart="12.613999999999999" fromJunction="3way_44" toJunction="4way_17"/>
<trip id="54" depart="12.852" fromJunction="3way_21" toJunction="4way_18"/>
<trip id="55" depart="13.09" fromJunction="4way_16" toJunction="4way_39"/>
<trip id="56" depart="13.328" fromJunction="4way_17" toJunction="4way_39"/>
<trip id="57" depart="13.565999999999999" fromJunction="4way_22" toJunction="4way_24"/>
<trip id="58" depart="13.803999999999998" fromJunction="4way_30" toJunction="4way_33"/>
<trip id="59" depart="14.042" fromJunction="4way_23" toJunction="3way_7"/>
<trip id="60" depart="14.28" fromJunction="3way_44" toJunction="3way_1"/>
<trip id="61" depart="14.517999999999999" fromJunction="3way_44" toJunction="4way_37"/>
<trip id="62" depart="14.756" fromJunction="3way_7" toJunction="4way_23"/>
<trip id="63" depart="14.994" fromJunction="3way_44" toJunction="3way_20"/>
<trip id="64" depart="15.232" fromJunction="4way_16" toJunction="4way_9"/>
<trip id="65" depart="15.469999999999999" fromJunction="4way_37" toJunction="4way_9"/>
<trip id="66" depart="15.707999999999998" fromJunction="3way_7" toJunction="4way_37"/>
<trip id="67" depart="15.946" fromJunction="3way_28" toJunction="4way_12"/>
<trip id="68" depart="16.183999999999997" fromJunction="4way_12" toJunction="3way_7"/>
<trip id="69" depart="16.422" fromJunction="4way_17" toJunction="4way_18"/>
<trip id="70" depart="16.66" fromJunction="4way_19" toJunction="3way_5"/>
<trip id="71" depart="16.898" fromJunction="4way_40" toJunction="4way_24"/>
<trip id="72" depart="17.136" fromJunction="4way_39" toJunction="3way_20"/>
<trip id="73" depart="17.374" fromJunction="4way_23" toJunction="3way_27"/>
<trip id="74" depart="17.612" fromJunction="4way_32" toJunction="3way_13"/>
<trip id="75" depart="17.849999999999998" fromJunction="4way_9" toJunction="4way_18"/>
<trip id="76" depart="18.088" fromJunction="3way_4" toJunction="3way_14"/>
<trip id="77" depart="18.326" fromJunction="4way_8" toJunction="4way_17"/>
<trip id="78" depart="18.564" fromJunction="4way_32" toJunction="4way_24"/>
<trip id="79" depart="18.802" fromJunction="4way_32" toJunction="4way_33"/>
<trip id="80" depart="19.04" fromJunction="3way_28" toJunction="3way_1"/>
<trip id="81" depart="19.278" fromJunction="3way_27" toJunction="4way_24"/>
<trip id="82" depart="19.516" fromJunction="3way_3" toJunction="4way_29"/>
<trip id="83" depart="19.753999999999998" fromJunction="3way_1" toJunction="3way_34"/>
<trip id="84" depart="19.991999999999997" fromJunction="3way_47" toJunction="4way_11"/>
<trip id="85" depart="20.23" fromJunction="4way_19" toJunction="3way_35"/>
<trip id="86" depart="20.468" fromJunction="3way_2" toJunction="4way_17"/>
<trip id="87" depart="20.706" fromJunction="4way_23" toJunction="3way_27"/>
<trip id="88" depart="20.944" fromJunction="3way_47" toJunction="4way_9"/>
<trip id="89" depart="21.182" fromJunction="4way_23" toJunction="4way_26"/>
<trip id="90" depart="21.419999999999998" fromJunction="4way_16" toJunction="4way_36"/>
<trip id="91" depart="21.657999999999998" fromJunction="3way_43" toJunction="4way_24"/>
<trip id="92" depart="21.896" fromJunction="3way_41" toJunction="3way_21"/>
<trip id="93" depart="22.134" fromJunction="4way_26" toJunction="3way_34"/>
<trip id="94" depart="22.372" fromJunction="4way_22" toJunction="4way_31"/>
<trip id="95" depart="22.61" fromJunction="3way_46" toJunction="3way_47"/>
<trip id="96" depart="22.848" fromJunction="3way_7" toJunction="3way_3"/>
<trip id="97" depart="23.086" fromJunction="4way_17" toJunction="3way_43"/>
<trip id="98" depart="23.323999999999998" fromJunction="3way_34" toJunction="3way_28"/>
<trip id="99" depart="23.561999999999998" fromJunction="3way_4" toJunction="3way_2"/>
<trip id="100" depart="23.799999999999997" fromJunction="4way_8" toJunction="4way_10"/>
<trip id="101" depart="24.038" fromJunction="4way_12" toJunction="4way_36"/>
<trip id="102" depart="24.276" fromJunction="3way_41" toJunction="4way_40"/>
<trip id="103" depart="24.514" fromJunction="3way_46" toJunction="4way_37"/>
<trip id="104" depart="24.752" fromJunction="4way_38" toJunction="3way_1"/>
<trip id="105" depart="24.99" fromJunction="3way_21" toJunction="3way_43"/>
<trip id="106" depart="25.227999999999998" fromJunction="4way_25" toJunction="4way_16"/>
<trip id="107" depart="25.465999999999998" fromJunction="4way_39" toJunction="4way_30"/>
<trip id="108" depart="25.704" fromJunction="4way_11" toJunction="3way_45"/>
<trip id="109" depart="25.942" fromJunction="4way_26" toJunction="3way_34"/>
<trip id="110" depart="26.18" fromJunction="3way_41" toJunction="4way_10"/>
<trip id="111" depart="26.418" fromJunction="4way_24" toJunction="4way_26"/>
<trip id="112" depart="26.656" fromJunction="3way_41" toJunction="3way_46"/>
<trip id="113" depart="26.894" fromJunction="3way_2" toJunction="4way_29"/>
<trip id="114" depart="27.131999999999998" fromJunction="3way_7" toJunction="3way_41"/>
<trip id="115" depart="27.369999999999997" fromJunction="4way_8" toJunction="3way_28"/>
<trip id="116" depart="27.607999999999997" fromJunction="4way_16" toJunction="3way_45"/>
<trip id="117" depart="27.846" fromJunction="3way_13" toJunction="4way_32"/>
<trip id="118" depart="28.084" fromJunction="3way_13" toJunction="4way_29"/>
<trip id="119" depart="28.322" fromJunction="3way_21" toJunction="4way_24"/>
<trip id="120" depart="28.56" fromJunction="3way_34" toJunction="4way_9"/>
<trip id="121" depart="28.798" fromJunction="4way_15" toJunction="3way_20"/>
<trip id="122" depart="29.035999999999998" fromJunction="4way_26" toJunction="3way_28"/>
<trip id="123" depart="29.273999999999997" fromJunction="4way_31" toJunction="4way_38"/>
<trip id="124" depart="29.512" fromJunction="3way_4" toJunction="4way_12"/>
<trip id="125" depart="29.75" fromJunction="4way_16" toJunction="4way_36"/>
<trip id="126" depart="29.988" fromJunction="3way_44" toJunction="4way_33"/>
<trip id="127" depart="30.226" fromJunction="3way_5" toJunction="3way_47"/>
<trip id="128" depart="30.464" fromJunction="4way_19" toJunction="3way_1"/>
<trip id="129" depart="30.701999999999998" fromJunction="4way_11" toJunction="4way_10"/>
<trip id="130" depart="30.939999999999998" fromJunction="4way_16" toJunction="3way_45"/>
<trip id="131" depart="31.177999999999997" fromJunction="4way_15" toJunction="3way_3"/>
<trip id="132" depart="31.415999999999997" fromJunction="4way_39" toJunction="4way_33"/>
<trip id="133" depart="31.654" fromJunction="4way_33" toJunction="3way_35"/>
<trip id="134" depart="31.892" fromJunction="4way_26" toJunction="3way_47"/>
<trip id="135" depart="32.129999999999995" fromJunction="4way_11" toJunction="4way_26"/>
<trip id="136" depart="32.367999999999995" fromJunction="4way_39" toJunction="4way_30"/>
<trip id="137" depart="32.606" fromJunction="4way_32" toJunction="3way_44"/>
<trip id="138" depart="32.844" fromJunction="3way_1" toJunction="4way_23"/>
<trip id="139" depart="33.082" fromJunction="3way_20" toJunction="3way_35"/>
<trip id="140" depart="33.32" fromJunction="4way_15" toJunction="4way_40"/>
<trip id="141" depart="33.558" fromJunction="4way_30" toJunction="4way_22"/>
<trip id="142" depart="33.796" fromJunction="3way_20" toJunction="3way_28"/>
<trip id="143" depart="34.034" fromJunction="3way_34" toJunction="4way_18"/>
<trip id="144" depart="34.272" fromJunction="3way_47" toJunction="4way_29"/>
<trip id="145" depart="34.51" fromJunction="4way_32" toJunction="3way_5"/>
<trip id="146" depart="34.748" fromJunction="4way_38" toJunction="4way_12"/>
<trip id="147" depart="34.986" fromJunction="3way_4" toJunction="3way_43"/>
<trip id="148" depart="35.224" fromJunction="3way_47" toJunction="3way_14"/>
<trip id="149" depart="35.461999999999996" fromJunction="3way_3" toJunction="3way_13"/>
<trip id="150" depart="35.699999999999996" fromJunction="3way_1" toJunction="4way_24"/>
<trip id="151" depart="35.937999999999995" fromJunction="3way_20" toJunction="4way_38"/>
<trip id="152" depart="36.176" fromJunction="3way_5" toJunction="3way_4"/>
<trip id="153" depart="36.414" fromJunction="3way_46" toJunction="4way_10"/>
<trip id="154" depart="36.652" fromJunction="4way_9" toJunction="3way_14"/>
<trip id="155" depart="36.89" fromJunction="4way_24" toJunction="4way_32"/>
<trip id="156" depart="37.128" fromJunction="3way_13" toJunction="3way_45"/>
<trip id="157" depart="37.366" fromJunction="3way_44" toJunction="3way_3"/>
<trip id="158" depart="37.604" fromJunction="4way_8" toJunction="3way_46"/>
<trip id="159" depart="37.842" fromJunction="4way_17" toJunction="4way_10"/>
<trip id="160" depart="38.08" fromJunction="3way_21" toJunction="3way_45"/>
<trip id="161" depart="38.318" fromJunction="4way_11" toJunction="3way_34"/>
<trip id="162" depart="38.556" fromJunction="4way_17" toJunction="3way_3"/>
<trip id="163" depart="38.794" fromJunction="4way_38" toJunction="4way_11"/>
<trip id="164" depart="39.032" fromJunction="3way_28" toJunction="3way_46"/>
<trip id="165" depart="39.269999999999996" fromJunction="3way_45" toJunction="4way_16"/>
<trip id="166" depart="39.507999999999996" fromJunction="3way_34" toJunction="3way_28"/>
<trip id="167" depart="39.745999999999995" fromJunction="3way_3" toJunction="4way_8"/>
<trip id="168" depart="39.983999999999995" fromJunction="3way_4" toJunction="4way_11"/>
<trip id="169" depart="40.222" fromJunction="3way_44" toJunction="4way_29"/>
<trip id="170" depart="40.46" fromJunction="4way_33" toJunction="4way_9"/>
<trip id="171" depart="40.698" fromJunction="3way_2" toJunction="4way_37"/>
<trip id="172" depart="40.936" fromJunction="4way_22" toJunction="3way_7"/>
<trip id="173" depart="41.174" fromJunction="4way_10" toJunction="4way_36"/>
<trip id="174" depart="41.412" fromJunction="3way_13" toJunction="3way_45"/>
<trip id="175" depart="41.65" fromJunction="4way_33" toJunction="3way_21"/>
<trip id="176" depart="41.888" fromJunction="4way_12" toJunction="3way_34"/>
<trip id="177" depart="42.126" fromJunction="4way_8" toJunction="4way_36"/>
<trip id="178" depart="42.364" fromJunction="4way_8" toJunction="4way_39"/>
<trip id="179" depart="42.602" fromJunction="3way_21" toJunction="4way_24"/>
<trip id="180" depart="42.839999999999996" fromJunction="4way_17" toJunction="4way_12"/>
<trip id="181" depart="43.077999999999996" fromJunction="3way_43" toJunction="4way_17"/>
<trip id="182" depart="43.315999999999995" fromJunction="4way_30" toJunction="4way_38"/>
<trip id="183" depart="43.553999999999995" fromJunction="3way_27" toJunction="3way_47"/>
<trip id="184" depart="43.792" fromJunction="4way_33" toJunction="4way_11"/>
<trip id="185" depart="44.03" fromJunction="4way_16" toJunction="4way_8"/>
<trip id="186" depart="44.268" fromJunction="4way_8" toJunction="4way_32"/>
<trip id="187" depart="44.506" fromJunction="4way_9" toJunction="4way_26"/>
<trip id="188" depart="44.744" fromJunction="4way_12" toJunction="4way_18"/>
<trip id="189" depart="44.982" fromJunction="3way_27" toJunction="4way_18"/>
<trip id="190" depart="45.22" fromJunction="3way_21" toJunction="4way_30"/>
<trip id="191" depart="45.458" fromJunction="3way_7" toJunction="3way_3"/>
<trip id="192" depart="45.696" fromJunction="4way_32" toJunction="3way_46"/>
<trip id="193" depart="45.934" fromJunction="4way_33" toJunction="3way_2"/>
<trip id="194" depart="46.172" fromJunction="3way_28" toJunction="3way_35"/>
<trip id="195" depart="46.41" fromJunction="3way_34" toJunction="3way_1"/>
<trip id="196" depart="46.647999999999996" fromJunction="4way_19" toJunction="3way_14"/>
<trip id="197" depart="46.885999999999996" fromJunction="4way_26" toJunction="3way_5"/>
<trip id="198" depart="47.123999999999995" fromJunction="4way_8" toJunction="4way_39"/>
<trip id="199" depart="47.361999999999995" fromJunction="3way_47" toJunction="3way_43"/>
<trip id="200" depart="47.599999999999994" fromJunction="3way_2" toJunction="4way_23"/>
<trip id="201" depart="47.838" fromJunction="3way_7" toJunction="3way_1"/>
<trip id="202" depart="48.076" fromJunction="3way_46" toJunction="3way_4"/>
<trip id="203" depart="48.314" fromJunction="3way_46" toJunction="3way_41"/>
<trip id="204" depart="48.552" fromJunction="3way_1" toJunction="3way_13"/>
<trip id="205" depart="48.79" fromJunction="4way_23" toJunction="3way_13"/>
<trip id="206" depart="49.028" fromJunction="4way_40" toJunction="4way_33"/>
<trip id="207" depart="49.266" fromJunction="3way_27" toJunction="3way_14"/>
<trip id="208" depart="49.504" fromJunction="4way_22" toJunction="4way_30"/>
<trip id="209" depart="49.742" fromJunction="3way_3" toJunction="4way_40"/>
<trip id="210" depart="49.98" fromJunction="3way_45" toJunction="4way_11"/>
<trip id="211" depart="50.217999999999996" fromJunction="4way_37" toJunction="3way_47"/>
<trip id="212" depart="50.455999999999996" fromJunction="4way_37" toJunction="3way_46"/>
<trip id="213" depart="50.693999999999996" fromJunction="3way_7" toJunction="4way_29"/>
<trip id="214" depart="50.931999999999995" fromJunction="3way_45" toJunction="4way_36"/>
<trip id="215" depart="51.169999999999995" fromJunction="3way_14" toJunction="4way_17"/>
<trip id="216" depart="51.408" fromJunction="4way_25" toJunction="3way_28"/>
<trip id="217" depart="51.646" fromJunction="3way_3" toJunction="4way_19"/>
<trip id="218" depart="51.884" fromJunction="3way_35" toJunction="3way_47"/>
<trip id="219" depart="52.122" fromJunction="4way_40" toJunction="4way_18"/>
<trip id="220" depart="52.36" fromJunction="4way_12" toJunction="4way_33"/>
<trip id="221" depart="52.598" fromJunction="4way_40" toJunction="3way_44"/>
<trip id="222" depart="52.836" fromJunction="3way_5" toJunction="3way_46"/>
<trip id="223" depart="53.074" fromJunction="3way_47" toJunction="4way_26"/>
<trip id="224" depart="53.312" fromJunction="3way_3" toJunction="4way_17"/>
<trip id="225" depart="53.55" fromJunction="4way_39" toJunction="4way_24"/>
<trip id="226" depart="53.788" fromJunction="3way_21" toJunction="3way_45"/>
<trip id="227" depart="54.025999999999996" fromJunction="4way_31" toJunction="3way_28"/>
<trip id="228" depart="54.263999999999996" fromJunction="3way_27" toJunction="3way_47"/>
<trip id="229" depart="54.501999999999995" fromJunction="3way_44" toJunction="4way_8"/>
<trip id="230" depart="54.739999999999995" fromJunction="3way_47" toJunction="4way_25"/>
<trip id="231" depart="54.977999999999994" fromJunction="4way_26" toJunction="4way_22"/>
<trip id="232" depart="55.215999999999994" fromJunction="4way_39" toJunction="4way_30"/>
<trip id="233" depart="55.454" fromJunction="4way_31" toJunction="4way_26"/>
<trip id="234" depart="55.692" fromJunction="4way_33" toJunction="4way_17"/>
<trip id="235" depart="55.93" fromJunction="4way_8" toJunction="4way_40"/>
<trip id="236" depart="56.168" fromJunction="3way_44" toJunction="3way_4"/>
<trip id="237" depart="56.406" fromJunction="3way_14" toJunction="3way_20"/>
<trip id="238" depart="56.644" fromJunction="4way_23" toJunction="3way_13"/>
<trip id="239" depart="56.882" fromJunction="4way_12" toJunction="3way_21"/>
<trip id="240" depart="57.12" fromJunction="4way_36" toJunction="4way_33"/>
<trip id="241" depart="57.358" fromJunction="4way_16" toJunction="3way_45"/>
<trip id="242" depart="57.596" fromJunction="3way_14" toJunction="4way_12"/>
<trip id="243" depart="57.833999999999996" fromJunction="3way_45" toJunction="4way_36"/>
<trip id="244" depart="58.071999999999996" fromJunction="3way_14" toJunction="4way_8"/>
<trip id="245" depart="58.309999999999995" fromJunction="4way_22" toJunction="3way_46"/>
<trip id="246" depart="58.547999999999995" fromJunction="3way_28" toJunction="3way_44"/>
<trip id="247" depart="58.785999999999994" fromJunction="4way_31" toJunction="4way_29"/>
<trip id="248" depart="59.024" fromJunction="4way_19" toJunction="3way_35"/>
<trip id="249" depart="59.262" fromJunction="3way_3" toJunction="4way_32"/>
<trip id="250" depart="59.5" fromJunction="4way_8" toJunction="3way_46"/>
<trip id="251" depart="59.738" fromJunction="3way_35" toJunction="3way_5"/>
<trip id="252" depart="59.976" fromJunction="4way_10" toJunction="4way_31"/>
<trip id="253" depart="60.214" fromJunction="4way_17" toJunction="4way_30"/>
<trip id="254" depart="60.452" fromJunction="3way_35" toJunction="3way_41"/>
<trip id="255" depart="60.69" fromJunction="4way_39" toJunction="4way_10"/>
<trip id="256" depart="60.928" fromJunction="3way_45" toJunction="4way_36"/>
<trip id="257" depart="61.166" fromJunction="4way_17" toJunction="3way_2"/>
<trip id="258" depart="61.403999999999996" fromJunction="3way_28" toJunction="3way_1"/>
<trip id="259" depart="61.641999999999996" fromJunction="4way_19" toJunction="4way_29"/>
<trip id="260" depart="61.879999999999995" fromJunction="3way_14" toJunction="3way_5"/>
<trip id="261" depart="62.117999999999995" fromJunction="3way_35" toJunction="3way_2"/>
<trip id="262" depart="62.355999999999995" fromJunction="3way_45" toJunction="4way_30"/>
<trip id="263" depart="62.593999999999994" fromJunction="3way_13" toJunction="3way_41"/>
<trip id="264" depart="62.831999999999994" fromJunction="4way_17" toJunction="4way_9"/>
<trip id="265" depart="63.07" fromJunction="4way_26" toJunction="4way_10"/>
<trip id="266" depart="63.308" fromJunction="4way_37" toJunction="3way_1"/>
<trip id="267" depart="63.546" fromJunction="4way_16" toJunction="4way_23"/>
<trip id="268" depart="63.784" fromJunction="3way_1" toJunction="4way_33"/>
<trip id="269" depart="64.02199999999999" fromJunction="4way_18" toJunction="4way_17"/>
<trip id="270" depart="64.25999999999999" fromJunction="3way_35" toJunction="4way_22"/>
<trip id="271" depart="64.49799999999999" fromJunction="3way_5" toJunction="4way_11"/>
<trip id="272" depart="64.73599999999999" fromJunction="4way_29" toJunction="3way_7"/>
<trip id="273" depart="64.974" fromJunction="3way_5" toJunction="4way_17"/>
<trip id="274" depart="65.212" fromJunction="3way_14" toJunction="3way_47"/>
<trip id="275" depart="65.45" fromJunction="4way_39" toJunction="4way_30"/>
<trip id="276" depart="65.688" fromJunction="3way_20" toJunction="4way_23"/>
<trip id="277" depart="65.926" fromJunction="4way_39" toJunction="4way_40"/>
<trip id="278" depart="66.164" fromJunction="4way_19" toJunction="4way_22"/>
<trip id="279" depart="66.402" fromJunction="4way_19" toJunction="4way_36"/>
<trip id="280" depart="66.64" fromJunction="4way_33" toJunction="4way_25"/>
<trip id="281" depart="66.878" fromJunction="3way_2" toJunction="4way_19"/>
<trip id="282" depart="67.116" fromJunction="3way_21" toJunction="3way_27"/>
<trip id="283" depart="67.354" fromJunction="3way_44" toJunction="4way_26"/>
<trip id="284" depart="67.592" fromJunction="4way_39" toJunction="3way_27"/>
<trip id="285" depart="67.83" fromJunction="4way_12" toJunction="4way_8"/>
<trip id="286" depart="68.068" fromJunction="4way_37" toJunction="3way_27"/>
<trip id="287" depart="68.306" fromJunction="3way_4" toJunction="3way_7"/>
<trip id="288" depart="68.544" fromJunction="3way_46" toJunction="4way_17"/>
<trip id="289" depart="68.782" fromJunction="3way_3" toJunction="3way_2"/>
<trip id="290" depart="69.02" fromJunction="4way_12" toJunction="3way_3"/>
<trip id="291" depart="69.258" fromJunction="4way_12" toJunction="4way_31"/>
<trip id="292" depart="69.496" fromJunction="4way_29" toJunction="4way_10"/>
<trip id="293" depart="69.734" fromJunction="4way_40" toJunction="3way_44"/>
<trip id="294" depart="69.972" fromJunction="4way_15" toJunction="3way_28"/>
<trip id="295" depart="70.21" fromJunction="4way_40" toJunction="3way_21"/>
<trip id="296" depart="70.448" fromJunction="3way_43" toJunction="3way_27"/>
<trip id="297" depart="70.68599999999999" fromJunction="3way_3" toJunction="4way_10"/>
<trip id="298" depart="70.92399999999999" fromJunction="4way_15" toJunction="4way_23"/>
<trip id="299" depart="71.16199999999999" fromJunction="3way_47" toJunction="3way_45"/>
<trip id="300" depart="71.39999999999999" fromJunction="3way_28" toJunction="4way_29"/>
<trip id="301" depart="71.63799999999999" fromJunction="3way_35" toJunction="4way_8"/>
<trip id="302" depart="71.87599999999999" fromJunction="3way_20" toJunction="4way_33"/>
<trip id="303" depart="72.11399999999999" fromJunction="3way_35" toJunction="3way_5"/>
<trip id="304" depart="72.352" fromJunction="4way_37" toJunction="4way_16"/>
<trip id="305" depart="72.59" fromJunction="4way_40" toJunction="3way_21"/>
<trip id="306" depart="72.828" fromJunction="4way_24" toJunction="3way_35"/>
<trip id="307" depart="73.066" fromJunction="4way_18" toJunction="4way_30"/>
<trip id="308" depart="73.304" fromJunction="4way_12" toJunction="4way_33"/>
<trip id="309" depart="73.542" fromJunction="4way_17" toJunction="4way_38"/>
<trip id="310" depart="73.78" fromJunction="3way_20" toJunction="3way_35"/>
<trip id="311" depart="74.018" fromJunction="3way_47" toJunction="3way_3"/>
<trip id="312" depart="74.256" fromJunction="4way_29" toJunction="3way_7"/>
<trip id="313" depart="74.494" fromJunction="4way_33" toJunction="4way_38"/>
<trip id="314" depart="74.732" fromJunction="3way_5" toJunction="3way_13"/>
<trip id="315" depart="74.97" fromJunction="4way_31" toJunction="4way_16"/>
<trip id="316" depart="75.208" fromJunction="4way_26" toJunction="4way_32"/>
<trip id="317" depart="75.446" fromJunction="3way_21" toJunction="4way_40"/>
<trip id="318" depart="75.684" fromJunction="3way_20" toJunction="3way_21"/>
<trip id="319" depart="75.922" fromJunction="4way_37" toJunction="4way_10"/>
<trip id="320" depart="76.16" fromJunction="3way_5" toJunction="4way_32"/>
<trip id="321" depart="76.398" fromJunction="4way_16" toJunction="4way_22"/>
<trip id="322" depart="76.636" fromJunction="3way_27" toJunction="3way_47"/>
<trip id="323" depart="76.874" fromJunction="3way_3" toJunction="4way_32"/>
<trip id="324" depart="77.112" fromJunction="3way_13" toJunction="4way_15"/>
<trip id="325" depart="77.35" fromJunction="4way_40" toJunction="4way_8"/>
<trip id="326" depart="77.588" fromJunction="4way_32" toJunction="3way_7"/>
<trip id="327" depart="77.826" fromJunction="3way_45" toJunction="3way_13"/>
<trip id="328" depart="78.064" fromJunction="3way_21" toJunction="3way_14"/>
<trip id="329" depart="78.30199999999999" fromJunction="3way_35" toJunction="4way_10"/>
<trip id="330" depart="78.53999999999999" fromJunction="4way_30" toJunction="4way_24"/>
<trip id="331" depart="78.77799999999999" fromJunction="3way_7" toJunction="3way_21"/>
<trip id="332" depart="79.01599999999999" fromJunction="3way_4" toJunction="4way_23"/>
<trip id="333" depart="79.25399999999999" fromJunction="4way_37" toJunction="4way_25"/>
<trip id="334" depart="79.49199999999999" fromJunction="4way_36" toJunction="4way_24"/>
<trip id="335" depart="79.72999999999999" fromJunction="3way_14" toJunction="3way_5"/>
<trip id="336" depart="79.96799999999999" fromJunction="3way_43" toJunction="3way_14"/>
<trip id="337" depart="80.206" fromJunction="4way_31" toJunction="3way_2"/>
<trip id="338" depart="80.444" fromJunction="4way_23" toJunction="3way_5"/>
<trip id="339" depart="80.682" fromJunction="4way_30" toJunction="4way_17"/>
<trip id="340" depart="80.92" fromJunction="3way_5" toJunction="4way_33"/>
<trip id="341" depart="81.158" fromJunction="3way_2" toJunction="4way_39"/>
<trip id="342" depart="81.396" fromJunction="3way_14" toJunction="4way_36"/>
<trip id="343" depart="81.634" fromJunction="3way_28" toJunction="4way_29"/>
<trip id="344" depart="81.872" fromJunction="3way_1" toJunction="3way_34"/>
<trip id="345" depart="82.11" fromJunction="4way_25" toJunction="4way_29"/>
<trip id="346" depart="82.348" fromJunction="3way_47" toJunction="3way_28"/>
<trip id="347" depart="82.586" fromJunction="3way_5" toJunction="3way_41"/>
<trip id="348" depart="82.824" fromJunction="3way_3" toJunction="3way_46"/>
<trip id="349" depart="83.062" fromJunction="4way_32" toJunction="3way_3"/>
<trip id="350" depart="83.3" fromJunction="4way_9" toJunction="3way_27"/>
<trip id="351" depart="83.538" fromJunction="4way_8" toJunction="4way_38"/>
<trip id="352" depart="83.776" fromJunction="3way_34" toJunction="3way_20"/>
<trip id="353" depart="84.014" fromJunction="4way_29" toJunction="3way_7"/>
<trip id="354" depart="84.252" fromJunction="4way_11" toJunction="3way_35"/>
<trip id="355" depart="84.49" fromJunction="4way_19" toJunction="4way_31"/>
<trip id="356" depart="84.728" fromJunction="4way_12" toJunction="3way_2"/>
<trip id="357" depart="84.966" fromJunction="4way_39" toJunction="3way_21"/>
<trip id="358" depart="85.204" fromJunction="4way_40" toJunction="4way_17"/>
<trip id="359" depart="85.442" fromJunction="3way_28" toJunction="4way_38"/>
<trip id="360" depart="85.67999999999999" fromJunction="3way_28" toJunction="4way_22"/>
<trip id="361" depart="85.91799999999999" fromJunction="3way_46" toJunction="3way_28"/>
<trip id="362" depart="86.15599999999999" fromJunction="4way_10" toJunction="4way_22"/>
<trip id="363" depart="86.39399999999999" fromJunction="4way_29" toJunction="3way_45"/>
<trip id="364" depart="86.63199999999999" fromJunction="3way_27" toJunction="3way_13"/>
<trip id="365" depart="86.86999999999999" fromJunction="4way_33" toJunction="3way_3"/>
<trip id="366" depart="87.10799999999999" fromJunction="3way_34" toJunction="3way_1"/>
<trip id="367" depart="87.34599999999999" fromJunction="3way_4" toJunction="4way_23"/>
<trip id="368" depart="87.584" fromJunction="4way_24" toJunction="4way_39"/>
<trip id="369" depart="87.822" fromJunction="4way_22" toJunction="4way_33"/>
<trip id="370" depart="88.06" fromJunction="4way_36" toJunction="3way_44"/>
<trip id="371" depart="88.298" fromJunction="4way_29" toJunction="4way_19"/>
<trip id="372" depart="88.536" fromJunction="4way_39" toJunction="3way_45"/>
<trip id="373" depart="88.774" fromJunction="3way_1" toJunction="3way_28"/>
<trip id="374" depart="89.012" fromJunction="3way_43" toJunction="3way_46"/>
<trip id="375" depart="89.25" fromJunction="4way_8" toJunction="4way_32"/>