<routes xmlns:xsi="http://www.w3.org/2001/XMLSchema-instance" xsi:noNamespaceSchemaLocation="http://sumo.dlr.de/xsd/routes_file.xsd">
<trip id="0" depart="0.0" fromJunction="4way_55" toJunction="4way_53"/>
<trip id="1" depart="0.2352" fromJunction="4way_53" toJunction="4way_24"/>
<trip id="2" depart="0.4704" fromJunction="4way_74" toJunction="4way_12"/>
<trip id="3" depart="0.7056" fromJunction="4way_67" toJunction="4way_32"/>
<trip id="4" depart="0.9408" fromJunction="4way_51" toJunction="4way_58"/>
<trip id="5" depart="1.176" fromJunction="4way_33" toJunction="4way_56"/>
<trip id="6" depart="1.4112" fromJunction="4way_18" toJunction="4way_73"/>
<trip id="7" depart="1.6463999999999999" fromJunction="3way_19" toJunction="3way_7"/>
<trip id="8" depart="1.8816" fromJunction="4way_86" toJunction="3way_2"/>
<trip id="9" depart="2.1168" fromJunction="4way_47" toJunction="4way_36"/>
<trip id="10" depart="2.352" fromJunction="4way_56" toJunction="4way_68"/>
<trip id="11" depart="2.5871999999999997" fromJunction="4way_36" toJunction="4way_52"/>
<trip id="12" depart="2.8224" fromJunction="4way_64" toJunction="3way_49"/>
<trip id="13" depart="3.0576" fromJunction="4way_38" toJunction="3way_69"/>
<trip id="14" depart="3.2927999999999997" fromJunction="4way_81" toJunction="4way_33"/>
<trip id="15" depart="3.528" fromJunction="4way_36" toJunction="3way_70"/>
<trip id="16" depart="3.7632" fromJunction="4way_73" toJunction="4way_42"/>
<trip id="17" depart="3.9983999999999997" fromJunction="4way_44" toJunction="3way_2"/>
<trip id="18" depart="4.2336" fromJunction="4way_44" toJunction="4way_34"/>
<trip id="19" depart="4.4688" fromJunction="4way_25" toJunction="4way_38"/>
<trip id="20" depart="4.704" fromJunction="4way_22" toJunction="4way_31"/>
<trip id="21" depart="4.9392" fromJunction="3way_6" toJunction="4way_35"/>
<trip id="22" depart="5.1743999999999994" fromJunction="3way_59" toJunction="3way_94"/>
<trip id="23" depart="5.4096" fromJunction="4way_31" toJunction="3way_20"/>
<trip id="24" depart="5.6448" fromJunction="4way_32" toJunction="4way_73"/>
<trip id="25" depart="5.88" fromJunction="3way_29" toJunction="4way_78"/>
<trip id="26" depart="6.1152" fromJunction="3way_89" toJunction="3way_94"/>
<trip id="27" depart="6.3504" fromJunction="3way_80" toJunction="4way_74"/>
<trip id="28" depart="6.5855999999999995" fromJunction="3way_91" toJunction="4way_52"/>
<trip id="29" depart="6.8208" fromJunction="3way_39" toJunction="3way_89"/>
<trip id="30" depart="7.056" fromJunction="3way_69" toJunction="4way_84"/>
<trip id="31" depart="7.2912" fromJunction="4way_41" toJunction="3way_96"/>
<trip id="32" depart="7.5264" fromJunction="3way_29" toJunction="4way_76"/>
<trip id="33" depart="7.7616" fromJunction="3way_29" toJunction="4way_17"/>
<trip id="34" depart="7.9967999999999995" fromJunction="4way_52" toJunction="4way_68"/>
<trip id="35" depart="8.232" fromJunction="4way_34" toJunction="4way_68"/>
<trip id="36" depart="8.4672" fromJunction="3way_4" toJunction="4way_75"/>
<trip id="37" depart="8.702399999999999" fromJunction="3way_49" toJunction="3way_50"/>
<trip id="38" depart="8.9376" fromJunction="3way_49" toJunction="3way_40"/>
<trip id="39" depart="9.1728" fromJunction="4way_81" toJunction="3way_20"/>
<trip id="40" depart="9.408" fromJunction="4way_35" toJunction="3way_7"/>
<trip id="41" depart="9.6432" fromJunction="3way_70" toJunction="4way_73"/>
<trip id="42" depart="9.8784" fromJunction="3way_29" toJunction="4way_33"/>
<trip id="43" depart="10.1136" fromJunction="4way_28" toJunction="4way_83"/>
<trip id="44" depart="10.348799999999999" fromJunction="4way_15" toJunction="3way_20"/>
<trip id="45" depart="10.584" fromJunction="4way_55" toJunction="3way_59"/>
<trip id="46" depart="10.8192" fromJunction="3way_97" toJunction="3way_50"/>
<trip id="47" depart="11.0544" fromJunction="3way_2" toJunction="4way_14"/>
<trip id="48" depart="11.2896" fromJunction="3way_1" toJunction="4way_86"/>
<trip id="49" depart="11.524799999999999" fromJunction="3way_70" toJunction="4way_25"/>
<trip id="50" depart="11.76" fromJunction="4way_58" toJunction="4way_75"/>
<trip id="51" depart="11.995199999999999" fromJunction="4way_83" toJunction="3way_91"/>
<trip id="52" depart="12.2304" fromJunction="4way_73" toJunction="4way_14"/>
<trip id="53" depart="12.4656" fromJunction="4way_48" toJunction="3way_93"/>
<trip id="54" depart="12.7008" fromJunction="4way_27" toJunction="4way_32"/>
<trip id="55" depart="12.936" fromJunction="3way_40" toJunction="4way_45"/>
<trip id="56" depart="13.171199999999999" fromJunction="4way_71" toJunction="4way_76"/>
<trip id="57" depart="13.4064" fromJunction="4way_83" toJunction="4way_57"/>
<trip id="58" depart="13.6416" fromJunction="4way_35" toJunction="4way_57"/>
<trip id="59" depart="13.8768" fromJunction="4way_13" toJunction="4way_65"/>
<trip id="60" depart="14.112" fromJunction="4way_64" toJunction="4way_48"/>
<trip id="61" depart="14.347199999999999" fromJunction="4way_34" toJunction="4way_12"/>
<trip id="62" depart="14.5824" fromJunction="3way_40" toJunction="3way_2"/>
<trip id="63" depart="14.817599999999999" fromJunction="3way_50" toJunction="4way_84"/>
<trip id="64" depart="15.0528" fromJunction="4way_22" toJunction="4way_44"/>
<trip id="65" depart="15.288" fromJunction="3way_40" toJunction="3way_69"/>
<trip id="66" depart="15.5232" fromJunction="4way_14" toJunction="4way_73"/>
<trip id="67" depart="15.7584" fromJunction="4way_74" toJunction="4way_83"/>
<trip id="68" depart="15.993599999999999" fromJunction="4way_22" toJunction="4way_74"/>
<trip id="69" depart="16.2288" fromJunction="4way_41" toJunction="4way_77"/>
<trip id="70" depart="16.464" fromJunction="4way_67" toJunction="4way_22"/>
<trip id="71" depart="16.6992" fromJunction="4way_45" toJunction="4way_66"/>
<trip id="72" depart="16.9344" fromJunction="4way_18" toJunction="3way_29"/>
<trip id="73" depart="17.1696" fromJunction="4way_88" toJunction="4way_55"/>
<trip id="74" depart="17.404799999999998" fromJunction="4way_47" toJunction="3way_79"/>
<trip id="75" depart="17.64" fromJunction="4way_44" toJunction="3way_89"/>
<trip id="76" depart="17.8752" fromJunction="4way_27" toJunction="3way_49"/>
<trip id="77" depart="18.1104" fromJunction="4way_73" toJunction="4way_66"/>
<trip id="78" depart="18.3456" fromJunction="3way_7" toJunction="4way_81"/>
<trip id="79" depart="18.5808" fromJunction="4way_42" toJunction="4way_35"/>
<trip id="80" depart="18.816" fromJunction="4way_47" toJunction="4way_65"/>
<trip id="81" depart="19.051199999999998" fromJunction="4way_37" toJunction="4way_68"/>
<trip id="82" depart="19.2864" fromJunction="4way_31" toJunction="3way_2"/>
<trip id="83" depart="19.5216" fromJunction="3way_98" toJunction="4way_75"/>
<trip id="84" depart="19.7568" fromJunction="3way_6" toJunction="4way_33"/>
<trip id="85" depart="19.992" fromJunction="3way_2" toJunction="3way_95"/>
<trip id="86" depart="20.2272" fromJunction="3way_93" toJunction="4way_56"/>
<trip id="87" depart="20.4624" fromJunction="4way_28" toJunction="4way_21"/>
<trip id="88" depart="20.697599999999998" fromJunction="3way_4" toJunction="4way_45"/>
<trip id="89" depart="20.9328" fromJunction="4way_44" toJunction="3way_89"/>
<trip id="90" depart="21.168" fromJunction="3way_92" toJunction="4way_83"/>
<trip id="91" depart="21.4032" fromJunction="4way_34" toJunction="4way_28"/>
<trip id="92" depart="21.6384" fromJunction="4way_14" toJunction="4way_43"/>
<trip id="93" depart="21.8736" fromJunction="3way_30" toJunction="4way_75"/>
<trip id="94" depart="22.1088" fromJunction="3way_94" toJunction="4way_71"/>
<trip id="95" depart="22.343999999999998" fromJunction="4way_38" toJunction="3way_97"/>
<trip id="96" depart="22.5792" fromJunction="4way_82" toJunction="4way_75"/>
<trip id="97" depart="22.8144" fromJunction="3way_80" toJunction="3way_93"/>
<trip id="98" depart="23.049599999999998" fromJunction="4way_22" toJunction="3way_6"/>
<trip id="99" depart="23.2848" fromJunction="4way_35" toJunction="3way_30"/>
<trip id="100" depart="23.52" fromJunction="3way_97" toJunction="4way_51"/>
<trip id="101" depart="23.7552" fromJunction="3way_7" toJunction="3way_3"/>
<trip id="102" depart="23.990399999999998" fromJunction="4way_42" toJunction="4way_25"/>
<trip id="103" depart="24.2256" fromJunction="4way_77" toJunction="4way_43"/>
<trip id="104" depart="24.4608" fromJunction="3way_94" toJunction="4way_88"/>
<trip id="105" depart="24.695999999999998" fromJunction="3way_70" toJunction="4way_84"/>
<trip id="106" depart="24.9312" fromJunction="4way_16" toJunction="3way_2"/>
<trip id="107" depart="25.1664" fromJunction="4way_51" toJunction="3way_20"/>
<trip id="108" depart="25.4016" fromJunction="4way_86" toJunction="4way_14"/>
<trip id="109" depart="25.6368" fromJunction="4way_47" toJunction="4way_54"/>
<trip id="110" depart="25.872" fromJunction="4way_56" toJunction="3way_60"/>
<trip id="111" depart="26.1072" fromJunction="4way_48" toJunction="3way_97"/>
<trip id="112" depart="26.342399999999998" fromJunction="3way_94" toJunction="4way_25"/>
<trip id="113" depart="26.5776" fromJunction="4way_75" toJunction="4way_38"/>
<trip id="114" depart="26.8128" fromJunction="3way_94" toJunction="3way_80"/>
<trip id="115" depart="27.048" fromJunction="3way_3" toJunction="4way_23"/>
<trip id="116" depart="27.2832" fromJunction="4way_12" toJunction="3way_95"/>
<trip id="117" depart="27.5184" fromJunction="4way_52" toJunction="4way_41"/>
<trip id="118" depart="27.7536" fromJunction="4way_14" toJunction="3way_60"/>
<trip id="119" depart="27.988799999999998" fromJunction="3way_49" toJunction="4way_37"/>
<trip id="120" depart="28.224" fromJunction="3way_59" toJunction="4way_23"/>
<trip id="121" depart="28.4592" fromJunction="4way_71" toJunction="4way_55"/>
<trip id="122" depart="28.694399999999998" fromJunction="3way_97" toJunction="4way_73"/>
<trip id="123" depart="28.9296" fromJunction="4way_72" toJunction="3way_69"/>
<trip id="124" depart="29.1648" fromJunction="4way_38" toJunction="4way_31"/>
<trip id="125" depart="29.4" fromJunction="4way_85" toJunction="4way_26"/>
<trip id="126" depart="29.635199999999998" fromJunction="3way_19" toJunction="4way_77"/>
<trip id="127" depart="29.8704" fromJunction="4way_14" toJunction="4way_63"/>
<trip id="128" depart="30.1056" fromJunction="3way_40" toJunction="4way_58"/>
<trip id="129" depart="30.340799999999998" fromJunction="3way_29" toJunction="3way_91"/>
<trip id="130" depart="30.576" fromJunction="4way_28" toJunction="3way_2"/>
<trip id="131" depart="30.8112" fromJunction="4way_46" toJunction="4way_15"/>
<trip id="132" depart="31.0464" fromJunction="4way_14" toJunction="3way_50"/>
<trip id="133" depart="31.281599999999997" fromJunction="4way_72" toJunction="3way_7"/>
<trip id="134" depart="31.5168" fromJunction="4way_57" toJunction="4way_68"/>
<trip id="135" depart="31.752" fromJunction="4way_58" toJunction="4way_11"/>
<trip id="136" depart="31.987199999999998" fromJunction="4way_48" toJunction="3way_92"/>
<trip id="137" depart="32.2224" fromJunction="4way_56" toJunction="4way_38"/>
<trip id="138" depart="32.4576" fromJunction="4way_47" toJunction="4way_54"/>
<trip id="139" depart="32.6928" fromJunction="4way_27" toJunction="3way_40"/>
<trip id="140" depart="32.928" fromJunction="3way_2" toJunction="4way_44"/>
<trip id="141" depart="33.163199999999996" fromJunction="3way_79" toJunction="4way_21"/>
<trip id="142" depart="33.3984" fromJunction="4way_62" toJunction="4way_78"/>
<trip id="143" depart="33.6336" fromJunction="4way_64" toJunction="4way_82"/>
<trip id="144" depart="33.8688" fromJunction="3way_69" toJunction="4way_41"/>
<trip id="145" depart="34.104" fromJunction="3way_96" toJunction="4way_76"/>
<trip id="146" depart="34.3392" fromJunction="3way_93" toJunction="4way_23"/>
<trip id="147" depart="34.5744" fromJunction="4way_37" toJunction="3way_29"/>
<trip id="148" depart="34.809599999999996" fromJunction="4way_58" toJunction="4way_68"/>
<trip id="149" depart="35.0448" fromJunction="4way_36" toJunction="4way_87"/>
<trip id="150" depart="35.28" fromJunction="3way_8" toJunction="3way_10"/>
<trip id="151" depart="35.5152" fromJunction="3way_92" toJunction="4way_81"/>
<trip id="152" depart="35.7504" fromJunction="3way_6" toJunction="3way_59"/>
<trip id="153" depart="35.9856" fromJunction="3way_2" toJunction="4way_65"/>
<trip id="154" depart="36.2208" fromJunction="3way_79" toJunction="4way_26"/>
<trip id="155" depart="36.455999999999996" fromJunction="3way_19" toJunction="3way_8"/>
<trip id="156" depart="36.6912" fromJunction="3way_91" toJunction="4way_15"/>
<trip id="157" depart="36.9264" fromJunction="4way_63" toJunction="4way_12"/>
<trip id="158" depart="37.1616" fromJunction="4way_65" toJunction="4way_37"/>
<trip id="159" depart="37.3968" fromJunction="3way_59" toJunction="3way_70"/>
<trip id="160" depart="37.632" fromJunction="3way_40" toJunction="3way_6"/>
<trip id="161" depart="37.8672" fromJunction="4way_42" toJunction="3way_70"/>
<trip id="162" depart="38.102399999999996" fromJunction="4way_35" toJunction="4way_25"/>
<trip id="163" depart="38.3376" fromJunction="4way_51" toJunction="3way_50"/>
<trip id="164" depart="38.5728" fromJunction="4way_46" toJunction="3way_97"/>
<trip id="165" depart="38.808" fromJunction="4way_35" toJunction="3way_6"/>
<trip id="166" depart="39.0432" fromJunction="4way_41" toJunction="3way_80"/>
<trip id="167" depart="39.2784" fromJunction="3way_60" toJunction="4way_14"/>
<trip id="168" depart="39.5136" fromJunction="3way_96" toJunction="4way_41"/>
<trip id="169" depart="39.748799999999996" fromJunction="3way_5" toJunction="4way_52"/>
<trip id="170" depart="39.984" fromJunction="3way_8" toJunction="4way_56"/>
<trip id="171" depart="40.2192" fromJunction="3way_30" toJunction="4way_23"/>
<trip id="172" depart="40.4544" fromJunction="4way_58" toJunction="4way_83"/>
<trip id="173" depart="40.6896" fromJunction="3way_4" toJunction="4way_64"/>
<trip id="174" depart="40.9248" fromJunction="4way_13" toJunction="4way_22"/>
<trip id="175" depart="41.16" fromJunction="4way_25" toJunction="4way_43"/>
<trip id="176" depart="41.395199999999996" fromJunction="3way_59" toJunction="3way_60"/>
<trip id="177" depart="41.6304" fromJunction="4way_48" toJunction="4way_61"/>
<trip id="178" depart="41.8656" fromJunction="4way_77" toJunction="3way_97"/>
<trip id="179" depart="42.1008" fromJunction="4way_42" toJunction="4way_53"/>
<trip id="180" depart="42.336" fromJunction="4way_52" toJunction="4way_57"/>
<trip id="181" depart="42.5712" fromJunction="4way_71" toJunction="4way_65"/>
<trip id="182" depart="42.8064" fromJunction="4way_35" toJunction="4way_77"/>
<trip id="183" depart="43.041599999999995" fromJunction="3way_10" toJunction="4way_45"/>
<trip id="184" depart="43.2768" fromJunction="4way_64" toJunction="4way_16"/>
<trip id="185" depart="43.512" fromJunction="3way_89" toJunction="3way_91"/>
<trip id="186" depart="43.7472" fromJunction="4way_58" toJunction="4way_56"/>
<trip id="187" depart="43.9824" fromJunction="4way_14" toJunction="4way_42"/>
<trip id="188" depart="44.2176" fromJunction="4way_42" toJunction="4way_37"/>
<trip id="189" depart="44.452799999999996" fromJunction="4way_83" toJunction="4way_48"/>
<trip id="190" depart="44.687999999999995" fromJunction="4way_87" toJunction="4way_76"/>
<trip id="191" depart="44.9232" fromJunction="3way_89" toJunction="4way_76"/>
<trip id="192" depart="45.1584" fromJunction="4way_71" toJunction="4way_54"/>
<trip id="193" depart="45.3936" fromJunction="4way_12" toJunction="3way_7"/>
<trip id="194" depart="45.6288" fromJunction="4way_27" toJunction="3way_80"/>
<trip id="195" depart="45.864" fromJunction="4way_58" toJunction="3way_4"/>
<trip id="196" depart="46.099199999999996" fromJunction="3way_97" toJunction="3way_2"/>
<trip id="197" depart="46.334399999999995" fromJunction="4way_28" toJunction="4way_71"/>
<trip id="198" depart="46.5696" fromJunction="4way_38" toJunction="3way_29"/>
<trip id="199" depart="46.8048" fromJunction="4way_42" toJunction="4way_47"/>
<trip id="200" depart="47.04" fromJunction="3way_92" toJunction="3way_10"/>
<trip id="201" depart="47.2752" fromJunction="3way_4" toJunction="4way_34"/>
<trip id="202" depart="47.5104" fromJunction="4way_22" toJunction="3way_2"/>
<trip id="203" depart="47.745599999999996" fromJunction="3way_80" toJunction="3way_7"/>
<trip id="204" depart="47.980799999999995" fromJunction="3way_80" toJunction="3way_93"/>
<trip id="205" depart="48.216" fromJunction="3way_2" toJunction="3way_59"/>
<trip id="206" depart="48.4512" fromJunction="4way_44" toJunction="3way_49"/>
<trip id="207" depart="48.6864" fromJunction="4way_88" toJunction="4way_68"/>
<trip id="208" depart="48.9216" fromJunction="3way_89" toJunction="4way_81"/>
<trip id="209" depart="49.1568" fromJunction="4way_82" toJunction="4way_64"/>
<trip id="210" depart="49.391999999999996" fromJunction="3way_7" toJunction="4way_78"/>
<trip id="211" depart="49.627199999999995" fromJunction="3way_50" toJunction="4way_46"/>
<trip id="212" depart="49.8624" fromJunction="4way_84" toJunction="3way_91"/>
<trip id="213" depart="50.0976" fromJunction="4way_84" toJunction="3way_91"/>
<trip id="214" depart="50.3328" fromJunction="4way_12" toJunction="4way_23"/>
<trip id="215" depart="50.568" fromJunction="3way_50" toJunction="4way_63"/>
<trip id="216" depart="50.8032" fromJunction="4way_81" toJunction="4way_45"/>
<trip id="217" depart="51.038399999999996" fromJunction="4way_86" toJunction="4way_31"/>
<trip id="218" depart="51.2736" fromJunction="3way_5" toJunction="4way_18"/>
<trip id="219" depart="51.5088" fromJunction="4way_21" toJunction="3way_92"/>
<trip id="220" depart="51.744" fromJunction="4way_78" toJunction="4way_76"/>
<trip id="221" depart="51.9792" fromJunction="4way_77" toJunction="4way_68"/>
<trip id="222" depart="52.2144" fromJunction="4way_88" toJunction="3way_40"/>
<trip id="223" depart="52.4496" fromJunction="3way_39" toJunction="3way_91"/>
<trip id="224" depart="52.684799999999996" fromJunction="3way_92" toJunction="4way_48"/>
<trip id="225" depart="52.92" fromJunction="3way_6" toJunction="4way_35"/>
<trip id="226" depart="53.1552" fromJunction="4way_57" toJunction="4way_75"/>
<trip id="227" depart="53.3904" fromJunction="4way_51" toJunction="3way_60"/>
<trip id="228" depart="53.6256" fromJunction="4way_85" toJunction="4way_41"/>
<trip id="229" depart="53.8608" fromJunction="3way_98" toJunction="3way_92"/>
<trip id="230" depart="54.096" fromJunction="3way_30" toJunction="4way_42"/>
<trip id="231" depart="54.331199999999995" fromJunction="3way_92" toJunction="4way_17"/>
<trip id="232" depart="54.5664" fromJunction="4way_38" toJunction="4way_13"/>
<trip id="233" depart="54.8016" fromJunction="4way_47" toJunction="4way_54"/>
<trip id="234" depart="55.0368" fromJunction="4way_16" toJunction="4way_38"/>
<trip id="235" depart="55.272" fromJunction="4way_58" toJunction="4way_45"/>
<trip id="236" depart="55.5072" fromJunction="4way_42" toJunction="4way_88"/>
<trip id="237" depart="55.742399999999996" fromJunction="3way_40" toJunction="3way_7"/>
<trip id="238" depart="55.977599999999995" fromJunction="4way_12" toJunction="3way_79"/>
<trip id="239" depart="56.2128" fromJunction="4way_24" toJunction="3way_59"/>
<trip id="240" depart="56.448" fromJunction="4way_67" toJunction="4way_51"/>
<trip id="241" depart="56.6832" fromJunction="4way_53" toJunction="4way_58"/>
<trip id="242" depart="56.9184" fromJunction="4way_14" toJunction="3way_60"/>
<trip id="243" depart="57.1536" fromJunction="4way_81" toJunction="4way_77"/>
<trip id="244" depart="57.388799999999996" fromJunction="3way_60" toJunction="4way_53"/>
<trip id="245" depart="57.623999999999995" fromJunction="4way_71" toJunction="4way_42"/>
<trip id="246" depart="57.8592" fromJunction="4way_13" toJunction="3way_91"/>
<trip id="247" depart="58.0944" fromJunction="4way_41" toJunction="3way_30"/>
<trip id="248" depart="58.3296" fromJunction="4way_16" toJunction="4way_33"/>
<trip id="249" depart="58.5648" fromJunction="4way_18" toJunction="4way_11"/>
<trip id="250" depart="58.8" fromJunction="3way_5" toJunction="4way_37"/>
<trip id="251" depart="59.035199999999996" fromJunction="4way_32" toJunction="3way_80"/>
<trip id="252" depart="59.270399999999995" fromJunction="4way_21" toJunction="3way_39"/>
<trip id="253" depart="59.5056" fromJunction="4way_25" toJunction="4way_85"/>
<trip id="254" depart="59.7408" fromJunction="4way_55" toJunction="4way_44"/>
<trip id="255" depart="59.976" fromJunction="4way_11" toJunction="3way_95"/>
<trip id="256" depart="60.2112" fromJunction="4way_57" toJunction="4way_15"/>
<trip id="257" depart="60.4464" fromJunction="3way_50" toJunction="4way_53"/>
<trip id="258" depart="60.681599999999996" fromJunction="4way_55" toJunction="3way_3"/>
<trip id="259" depart="60.916799999999995" fromJunction="4way_41" toJunction="3way_1"/>
<trip id="260" depart="61.152" fromJunction="4way_18" toJunction="4way_33"/>
<trip id="261" depart="61.3872" fromJunction="4way_71" toJunction="3way_19"/>
<trip id="262" depart="61.6224" fromJunction="4way_11" toJunction="3way_3"/>
<trip id="263" depart="61.8576" fromJunction="3way_60" toJunction="4way_44"/>
<trip id="264" depart="62.0928" fromJunction="3way_49" toJunction="3way_94"/>
<trip id="265" depart="62.327999999999996" fromJunction="4way_35" toJunction="4way_83"/>
<trip id="266" depart="62.563199999999995" fromJunction="4way_48" toJunction="4way_15"/>
<trip id="267" depart="62.7984" fromJunction="4way_74" toJunction="3way_1"/>
<trip id="268" depart="63.0336" fromJunction="4way_14" toJunction="4way_24"/>
<trip id="269" depart="63.2688" fromJunction="3way_2" toJunction="4way_58"/>
<trip id="270" depart="63.504" fromJunction="4way_76" toJunction="4way_35"/>
<trip id="271" depart="63.7392" fromJunction="4way_11" toJunction="4way_13"/>
<trip id="272" depart="63.974399999999996" fromJunction="3way_29" toJunction="4way_46"/>
<trip id="273" depart="64.2096" fromJunction="4way_23" toJunction="4way_32"/>
<trip id="274" depart="64.4448" fromJunction="3way_19" toJunction="4way_35"/>
<trip id="275" depart="64.67999999999999" fromJunction="4way_81" toJunction="3way_93"/>
<trip id="276" depart="64.9152" fromJunction="4way_67" toJunction="4way_44"/>
<trip id="277" depart="65.1504" fromJunction="3way_59" toJunction="4way_44"/>
<trip id="278" depart="65.3856" fromJunction="4way_47" toJunction="4way_78"/>
<trip id="279" depart="65.6208" fromJunction="4way_18" toJunction="4way_13"/>
<trip id="280" depart="65.856" fromJunction="4way_18" toJunction="4way_43"/>
<trip id="281" depart="66.0912" fromJunction="4way_58" toJunction="4way_86"/>
<trip id="282" depart="66.32639999999999" fromJunction="3way_4" toJunction="4way_18"/>
<trip id="283" depart="66.5616" fromJunction="4way_61" toJunction="3way_98"/>
<trip id="284" depart="66.7968" fromJunction="3way_40" toJunction="4way_48"/>
<trip id="285" depart="67.032" fromJunction="4way_67" toJunction="3way_89"/>
<trip id="286" depart="67.2672" fromJunction="4way_87" toJunction="4way_32"/>
<trip id="287" depart="67.5024" fromJunction="4way_84" toJunction="3way_89"/>
<trip id="288" depart="67.7376" fromJunction="3way_8" toJunction="4way_32"/>
<trip id="289" depart="67.97279999999999" fromJunction="3way_91" toJunction="4way_35"/>
<trip id="290" depart="68.208" fromJunction="3way_6" toJunction="3way_4"/>
<trip id="291" depart="68.4432" fromJunction="4way_87" toJunction="3way_6"/>
<trip id="292" depart="68.6784" fromJunction="4way_77" toJunction="4way_85"/>
<trip id="293" depart="68.9136" fromJunction="4way_33" toJunction="4way_15"/>
<trip id="294" depart="69.1488" fromJunction="4way_88" toJunction="3way_30"/>
<trip id="295" depart="69.384" fromJunction="4way_62" toJunction="4way_31"/>
<trip id="296" depart="69.61919999999999" fromJunction="4way_78" toJunction="4way_51"/>
<trip id="297" depart="69.8544" fromJunction="3way_10" toJunction="3way_98"/>
<trip id="298" depart="70.0896" fromJunction="3way_7" toJunction="4way_25"/>
<trip id="299" depart="70.3248" fromJunction="4way_62" toJunction="4way_34"/>
<trip id="300" depart="70.56" fromJunction="3way_92" toJunction="3way_50"/>
<trip id="301" depart="70.7952" fromJunction="4way_41" toJunction="4way_23"/>
<trip id="302" depart="71.0304" fromJunction="4way_11" toJunction="4way_42"/>
<trip id="303" depart="71.26559999999999" fromJunction="3way_59" toJunction="4way_68"/>
<trip id="304" depart="71.5008" fromJunction="4way_11" toJunction="3way_29"/>
<trip id="305" depart="71.736" fromJunction="4way_84" toJunction="4way_14"/>
<trip id="306" depart="71.9712" fromJunction="4way_88" toJunction="4way_71"/>
<trip id="307" depart="72.2064" fromJunction="4way_65" toJunction="4way_21"/>
<trip id="308" depart="72.4416" fromJunction="4way_76" toJunction="4way_64"/>
<trip id="309" depart="72.6768" fromJunction="4way_67" toJunction="4way_68"/>
<trip id="310" depart="72.91199999999999" fromJunction="4way_45" toJunction="4way_26"/>
<trip id="311" depart="73.1472" fromJunction="3way_79" toJunction="4way_11"/>
<trip id="312" depart="73.3824" fromJunction="3way_91" toJunction="3way_7"/>
<trip id="313" depart="73.6176" fromJunction="4way_33" toJunction="4way_22"/>
<trip id="314" depart="73.8528" fromJunction="4way_58" toJunction="4way_36"/>
<trip id="315" depart="74.088" fromJunction="3way_39" toJunction="3way_49"/>
<trip id="316" depart="74.3232" fromJunction="4way_85" toJunction="4way_14"/>
<trip id="317" depart="74.55839999999999" fromJunction="4way_28" toJunction="4way_27"/>
<trip id="318" depart="74.7936" fromJunction="4way_71" toJunction="4way_78"/>
<trip id="319" depart="75.0288" fromJunction="3way_79" toJunction="4way_51"/>
<trip id="320" depart="75.264" fromJunction="4way_84" toJunction="4way_25"/>
<trip id="321" depart="75.4992" fromJunction="3way_29" toJunction="4way_37"/>
<trip id="322" depart="75.7344" fromJunction="4way_83" toJunction="4way_82"/>
<trip id="323" depart="75.9696" fromJunction="3way_98" toJunction="3way_91"/>
<trip id="324" depart="76.20479999999999" fromJunction="3way_6" toJunction="4way_37"/>
<trip id="325" depart="76.44" fromJunction="3way_49" toJunction="4way_62"/>
<trip id="326" depart="76.6752" fromJunction="4way_78" toJunction="4way_42"/>
<trip id="327" depart="76.9104" fromJunction="4way_37" toJunction="4way_12"/>
<trip id="328" depart="77.1456" fromJunction="3way_60" toJunction="3way_49"/>
<trip id="329" depart="77.3808" fromJunction="4way_21" toJunction="4way_15"/>
<trip id="330" depart="77.616" fromJunction="4way_64" toJunction="4way_55"/>
<trip id="331" depart="77.85119999999999" fromJunction="4way_22" toJunction="4way_71"/>
<trip id="332" depart="78.0864" fromJunction="3way_7" toJunction="4way_34"/>
<trip id="333" depart="78.3216" fromJunction="4way_74" toJunction="4way_76"/>
<trip id="334" depart="78.5568" fromJunction="4way_43" toJunction="4way_65"/>
<trip id="335" depart="78.792" fromJunction="4way_71" toJunction="3way_39"/>
<trip id="336" depart="79.0272" fromJunction="3way_20" toJunction="4way_71"/>
<trip id="337" depart="79.2624" fromJunction="4way_75" toJunction="3way_3"/>
<trip id="338" depart="79.49759999999999" fromJunction="4way_34" toJunction="3way_39"/>
<trip id="339" depart="79.7328" fromJunction="4way_54" toJunction="4way_45"/>
<trip id="340" depart="79.968" fromJunction="3way_29" toJunction="4way_58"/>
<trip id="341" depart="80.2032" fromJunction="3way_3" toJunction="4way_47"/>
<trip id="342" depart="80.4384" fromJunction="4way_71" toJunction="4way_43"/>
<trip id="343" depart="80.6736" fromJunction="4way_41" toJunction="4way_33"/>
<trip id="344" depart="80.9088" fromJunction="3way_2" toJunction="3way_96"/>
<trip id="345" depart="81.14399999999999" fromJunction="4way_17" toJunction="4way_23"/>
<trip id="346" depart="81.3792" fromJunction="3way_93" toJunction="4way_41"/>
<trip id="347" depart="81.6144" fromJunction="3way_19" toJunction="3way_8"/>
<trip id="348" depart="81.8496" fromJunction="3way_29" toJunction="3way_93"/>
<trip id="349" depart="82.0848" fromJunction="3way_7" toJunction="3way_70"/>
<trip id="350" depart="82.32" fromJunction="4way_37" toJunction="3way_7"/>
<trip id="351" depart="82.5552" fromJunction="4way_63" toJunction="3way_89"/>
<trip id="352" depart="82.79039999999999" fromJunction="4way_42" toJunction="4way_36"/>
<trip id="353" depart="83.0256" fromJunction="3way_95" toJunction="3way_79"/>
<trip id="354" depart="83.2608" fromJunction="4way_33" toJunction="4way_22"/>
<trip id="355" depart="83.496" fromJunction="4way_46" toJunction="4way_21"/>
<trip id="356" depart="83.7312" fromJunction="4way_28" toJunction="4way_16"/>
<trip id="357" depart="83.9664" fromJunction="4way_67" toJunction="3way_3"/>
<trip id="358" depart="84.2016" fromJunction="4way_57" toJunction="4way_61"/>
<trip id="359" depart="84.43679999999999" fromJunction="4way_78" toJunction="4way_35"/>
<trip id="360" depart="84.672" fromJunction="4way_31" toJunction="4way_16"/>
<trip id="361" depart="84.9072" fromJunction="4way_51" toJunction="4way_13"/>
<trip id="362" depart="85.1424" fromJunction="3way_70" toJunction="4way_41"/>
<trip id="363" depart="85.3776" fromJunction="4way_25" toJunction="4way_82"/>
<trip id="364" depart="85.6128" fromJunction="4way_33" toJunction="3way_60"/>
<trip id="365" depart="85.848" fromJunction="3way_89" toJunction="3way_49"/>
<trip id="366" depart="86.08319999999999" fromJunction="4way_68" toJunction="3way_5"/>
<trip id="367" depart="86.3184" fromJunction="3way_97" toJunction="3way_1"/>
<trip id="368" depart="86.5536" fromJunction="3way_8" toJunction="4way_34"/>
<trip id="369" depart="86.7888" fromJunction="4way_65" toJunction="4way_57"/>
<trip id="370" depart="87.024" fromJunction="4way_13" toJunction="4way_58"/>
<trip id="371" depart="87.25919999999999" fromJunction="4way_53" toJunction="3way_40"/>
<trip id="372" depart="87.4944" fromJunction="4way_23" toJunction="4way_28"/>
<trip id="373" depart="87.72959999999999" fromJunction="4way_57" toJunction="3way_70"/>
<trip id="374" depart="87.9648" fromJunction="3way_1" toJunction="4way_41"/>
<trip id="375" depart="88.2" fromJunction="3way_20" toJunction="3way_91"/>