<?xml version="1.0" encoding="UTF-8"?>

<!-- generated on 2023-07-27 13:13:15 by Eclipse SUMO duarouter Version 1.12.0
<configuration xmlns:xsi="http://www.w3.org/2001/XMLSchema-instance" xsi:noNamespaceSchemaLocation="http://sumo.dlr.de/xsd/duarouterConfiguration.xsd">

    <input>
        <net-file value="sq.net.xml"/>
        <route-files value="sq.trips.xml"/>
        <junction-taz value="true"/>
    </input>

    <output>
        <output-file value="sq.rou.xml"/>
        <alternatives-output value="sq.rou.alt.xml"/>
    </output>

    <processing>
        <weights.random-factor value="1.2"/>
    </processing>

    <time>
        <begin value="0"/>
        <end value="7200"/>
    </time>

    <report>
        <verbose value="true"/>
    </report>

    <random_number>
        <seed value="5"/>
    </random_number>

</configuration>
-->

<routes xmlns:xsi="http://www.w3.org/2001/XMLSchema-instance" xsi:noNamespaceSchemaLocation="http://sumo.dlr.de/xsd/routes_file.xsd">
    <vehicle id="0" depart="0.00">
        <route edges="35_4way_7to4way_6 23_4way_6to3way_5"/>
    </vehicle>
    <vehicle id="1" depart="0.33">
        <route edges="23_3way_5to4way_6"/>
    </vehicle>
    <vehicle id="2" depart="0.67">
        <route edges="26_4way_11to4way_16 17_4way_16to3way_21"/>
    </vehicle>
    <vehicle id="3" depart="1.00">
        <route edges="36_4way_8to4way_7 35_4way_7to4way_6 23_4way_6to3way_5 5_3way_5to3way_10 4_3way_10to3way_15"/>
    </vehicle>
    <vehicle id="4" depart="1.33">
        <route edges="16_3way_21to3way_22 18_3way_22to3way_23 20_3way_23to4way_18"/>
    </vehicle>
    <vehicle id="5" depart="1.67">
        <route edges="5_3way_5to3way_10 6_3way_10to4way_11 25_4way_11to4way_12"/>
    </vehicle>
    <vehicle id="6" depart="2.00">
        <route edges="32_4way_13to4way_8 36_4way_8to4way_7 35_4way_7to4way_6 23_4way_6to3way_5"/>
    </vehicle>
    <vehicle id="7" depart="2.33">
        <route edges="29_4way_17to4way_12 30_4way_12to4way_7 15_4way_7to3way_2 1_3way_2to3way_1"/>
    </vehicle>
    <vehicle id="8" depart="2.67">
        <route edges="36_4way_8to4way_7 30_4way_7to4way_12"/>
    </vehicle>
    <vehicle id="9" depart="3.00">
        <route edges="29_4way_12to4way_17 34_4way_17to4way_18"/>
    </vehicle>
    <vehicle id="10" depart="3.33">
        <route edges="25_4way_12to4way_11 6_4way_11to3way_10 4_3way_10to3way_15"/>
    </vehicle>
    <vehicle id="11" depart="3.67">
        <route edges="27_4way_11to4way_6 3_4way_6to3way_1 1_3way_1to3way_2 14_3way_2to3way_3"/>
    </vehicle>
    <vehicle id="12" depart="4.00">
        <route edges="9_4way_13to3way_14 8_3way_14to3way_9"/>
    </vehicle>
    <vehicle id="13" depart="4.33">
        <route edges="10_3way_21to3way_15 4_3way_15to3way_10"/>
    </vehicle>
    <vehicle id="14" depart="4.67">
        <route edges="29_4way_12to4way_17 34_4way_17to4way_18 13_4way_18to3way_19"/>
    </vehicle>
    <vehicle id="15" depart="5.00">
        <route edges="5_3way_5to3way_10 4_3way_10to3way_15"/>
    </vehicle>
    <vehicle id="16" depart="5.33">
        <route edges="3_4way_6to3way_1"/>
    </vehicle>
    <vehicle id="17" depart="5.67">
        <route edges="33_4way_16to4way_17 34_4way_17to4way_18 31_4way_18to4way_13"/>
    </vehicle>
    <vehicle id="18" depart="6.00">
        <route edges="10_3way_15to3way_21 16_3way_21to3way_22"/>
    </vehicle>
    <vehicle id="19" depart="6.33">
        <route edges="1_3way_2to3way_1 3_3way_1to4way_6 27_4way_6to4way_11 26_4way_11to4way_16"/>
    </vehicle>
    <vehicle id="20" depart="6.67">
        <route edges="21_3way_3to3way_9 8_3way_9to3way_14"/>
    </vehicle>
    <vehicle id="21" depart="7.00">
        <route edges="18_3way_22to3way_23"/>
    </vehicle>
    <vehicle id="22" depart="7.33">
        <route edges="4_3way_15to3way_10 5_3way_10to3way_5"/>
    </vehicle>
    <vehicle id="23" depart="7.67">
        <route edges="22_3way_3to4way_8 32_4way_8to4way_13 31_4way_13to4way_18"/>
    </vehicle>
    <vehicle id="24" depart="8.00">
        <route edges="8_3way_9to3way_14"/>
    </vehicle>
    <vehicle id="25" depart="8.33">
        <route edges="7_3way_19to3way_14 9_3way_14to4way_13 28_4way_13to4way_12 25_4way_12to4way_11"/>
    </vehicle>
    <vehicle id="26" depart="8.67">
        <route edges="13_3way_19to4way_18 34_4way_18to4way_17 33_4way_17to4way_16 11_4way_16to3way_15"/>
    </vehicle>
    <vehicle id="27" depart="9.00">
        <route edges="21_3way_3to3way_9"/>
    </vehicle>
    <vehicle id="28" depart="9.33">
        <route edges="14_3way_3to3way_2 1_3way_2to3way_1 3_3way_1to4way_6 27_4way_6to4way_11"/>
    </vehicle>
    <vehicle id="29" depart="9.67">
        <route edges="18_3way_22to3way_23 12_3way_23to3way_19 7_3way_19to3way_14"/>
    </vehicle>
    <vehicle id="30" depart="10.00">
        <route edges="14_3way_3to3way_2 15_3way_2to4way_7 30_4way_7to4way_12 29_4way_12to4way_17"/>
    </vehicle>
    <vehicle id="31" depart="10.33">
        <route edges="14_3way_3to3way_2 15_3way_2to4way_7 30_4way_7to4way_12 29_4way_12to4way_17"/>
    </vehicle>
    <vehicle id="32" depart="10.67">
        <route edges="11_3way_15to4way_16 33_4way_16to4way_17 34_4way_17to4way_18"/>
    </vehicle>
    <vehicle id="33" depart="11.00">
        <route edges="27_4way_6to4way_11 26_4way_11to4way_16 33_4way_16to4way_17 34_4way_17to4way_18"/>
    </vehicle>
    <vehicle id="34" depart="11.33">
        <route edges="3_3way_1to4way_6 35_4way_6to4way_7"/>
    </vehicle>
    <vehicle id="35" depart="11.67">
        <route edges="22_3way_3to4way_8 32_4way_8to4way_13 31_4way_13to4way_18 13_4way_18to3way_19"/>
    </vehicle>
    <vehicle id="36" depart="12.00">
        <route edges="22_3way_3to4way_8 32_4way_8to4way_13 31_4way_13to4way_18 20_4way_18to3way_23"/>
    </vehicle>
    <vehicle id="37" depart="12.33">
        <route edges="16_3way_21to3way_22 18_3way_22to3way_23"/>
    </vehicle>
    <vehicle id="38" depart="12.67">
        <route edges="33_4way_16to4way_17 29_4way_17to4way_12 30_4way_12to4way_7 15_4way_7to3way_2"/>
    </vehicle>
    <vehicle id="39" depart="13.00">
        <route edges="7_3way_19to3way_14 8_3way_14to3way_9 24_3way_9to4way_8 36_4way_8to4way_7 35_4way_7to4way_6 23_4way_6to3way_5"/>
    </vehicle>
    <vehicle id="40" depart="13.33">
        <route edges="1_3way_2to3way_1 2_3way_1to3way_5 5_3way_5to3way_10"/>
    </vehicle>
    <vehicle id="41" depart="13.67">
        <route edges="32_4way_13to4way_8 36_4way_8to4way_7 35_4way_7to4way_6"/>
    </vehicle>
    <vehicle id="42" depart="14.00">
        <route edges="17_4way_16to3way_21 16_3way_21to3way_22 18_3way_22to3way_23"/>
    </vehicle>
    <vehicle id="43" depart="14.33">
        <route edges="36_4way_7to4way_8 22_4way_8to3way_3"/>
    </vehicle>
    <vehicle id="44" depart="14.67">
        <route edges="24_3way_9to4way_8 32_4way_8to4way_13 31_4way_13to4way_18 20_4way_18to3way_23"/>
    </vehicle>
    <vehicle id="45" depart="15.00">
        <route edges="3_3way_1to4way_6"/>
    </vehicle>
    <vehicle id="46" depart="15.33">
        <route edges="3_3way_1to4way_6 27_4way_6to4way_11 26_4way_11to4way_16 33_4way_16to4way_17"/>
    </vehicle>
    <vehicle id="47" depart="15.67">
        <route edges="13_3way_19to4way_18 34_4way_18to4way_17 33_4way_17to4way_16"/>
    </vehicle>
    <vehicle id="48" depart="16.00">
        <route edges="31_4way_18to4way_13 32_4way_13to4way_8 36_4way_8to4way_7"/>
    </vehicle>
    <vehicle id="49" depart="16.33">
        <route edges="27_4way_6to4way_11 26_4way_11to4way_16 33_4way_16to4way_17 34_4way_17to4way_18 13_4way_18to3way_19"/>
    </vehicle>
    <vehicle id="50" depart="16.67">
        <route edges="13_4way_18to3way_19 7_3way_19to3way_14"/>
    </vehicle>
    <vehicle id="51" depart="17.00">
        <route edges="33_4way_17to4way_16 11_4way_16to3way_15"/>
    </vehicle>
    <vehicle id="52" depart="17.33">
        <route edges="20_3way_23to4way_18 34_4way_18to4way_17 33_4way_17to4way_16"/>
    </vehicle>
    <vehicle id="53" depart="17.67">
        <route edges="16_3way_21to3way_22 19_3way_22to4way_17"/>
    </vehicle>
    <vehicle id="54" depart="18.00">
        <route edges="35_4way_6to4way_7 36_4way_7to4way_8"/>
    </vehicle>
    <vehicle id="55" depart="18.33">
        <route edges="33_4way_16to4way_17 34_4way_17to4way_18 31_4way_18to4way_13 32_4way_13to4way_8"/>
    </vehicle>
    <vehicle id="56" depart="18.67">
        <route edges="6_3way_10to4way_11 25_4way_11to4way_12 30_4way_12to4way_7"/>
    </vehicle>
    <vehicle id="57" depart="19.00">
        <route edges="26_4way_11to4way_16 33_4way_16to4way_17 34_4way_17to4way_18"/>
    </vehicle>
    <vehicle id="58" depart="19.33">
        <route edges="27_4way_6to4way_11 26_4way_11to4way_16 17_4way_16to3way_21"/>
    </vehicle>
    <vehicle id="59" depart="19.67">
        <route edges="20_3way_23to4way_18 31_4way_18to4way_13 32_4way_13to4way_8 22_4way_8to3way_3 14_3way_3to3way_2 1_3way_2to3way_1"/>
    </vehicle>
    <vehicle id="60" depart="20.00">
        <route edges="20_3way_23to4way_18 31_4way_18to4way_13 28_4way_13to4way_12 25_4way_12to4way_11"/>
    </vehicle>
    <vehicle id="61" depart="20.33">
        <route edges="11_3way_15to4way_16 26_4way_16to4way_11 27_4way_11to4way_6"/>
    </vehicle>
    <vehicle id="62" depart="20.67">
        <route edges="20_3way_23to4way_18 31_4way_18to4way_13 32_4way_13to4way_8 22_4way_8to3way_3"/>
    </vehicle>
    <vehicle id="63" depart="21.00">
        <route edges="23_4way_6to3way_5"/>
    </vehicle>
    <vehicle id="64" depart="21.33">
        <route edges="27_4way_11to4way_6"/>
    </vehicle>
    <vehicle id="65" depart="21.67">
        <route edges="11_3way_15to4way_16 26_4way_16to4way_11"/>
    </vehicle>
    <vehicle id="66" depart="22.00">
        <route edges="18_3way_22to3way_23 20_3way_23to4way_18 31_4way_18to4way_13 32_4way_13to4way_8"/>
    </vehicle>
    <vehicle id="67" depart="22.33">
        <route edges="36_4way_8to4way_7 35_4way_7to4way_6 23_4way_6to3way_5 5_3way_5to3way_10 4_3way_10to3way_15"/>
    </vehicle>
    <vehicle id="68" depart="22.66">
        <route edges="33_4way_16to4way_17 29_4way_17to4way_12"/>
    </vehicle>
    <vehicle id="69" depart="23.00">
        <route edges="32_4way_13to4way_8 22_4way_8to3way_3"/>
    </vehicle>
    <vehicle id="70" depart="23.33">
        <route edges="34_4way_18to4way_17 33_4way_17to4way_16"/>
    </vehicle>
    <vehicle id="71" depart="23.66">
        <route edges="24_4way_8to3way_9"/>
    </vehicle>
    <vehicle id="72" depart="24.00">
        <route edges="35_4way_6to4way_7 36_4way_7to4way_8 24_4way_8to3way_9"/>
    </vehicle>
    <vehicle id="73" depart="24.33">
        <route edges="34_4way_17to4way_18 31_4way_18to4way_13 32_4way_13to4way_8 22_4way_8to3way_3"/>
    </vehicle>
    <vehicle id="74" depart="24.66">
        <route edges="5_3way_5to3way_10 6_3way_10to4way_11 25_4way_11to4way_12"/>
    </vehicle>
    <vehicle id="75" depart="25.00">
        <route edges="15_3way_2to4way_7 30_4way_7to4way_12 29_4way_12to4way_17 19_4way_17to3way_22 16_3way_22to3way_21"/>
    </vehicle>
    <vehicle id="76" depart="25.33">
        <route edges="11_3way_15to4way_16"/>
    </vehicle>
    <vehicle id="77" depart="25.66">
        <route edges="36_4way_8to4way_7"/>
    </vehicle>
    <vehicle id="78" depart="26.00">
        <route edges="34_4way_17to4way_18"/>
    </vehicle>
    <vehicle id="79" depart="26.33">
        <route edges="19_3way_22to4way_17 29_4way_17to4way_12 30_4way_12to4way_7 15_4way_7to3way_2 1_3way_2to3way_1"/>
    </vehicle>
    <vehicle id="80" depart="26.66">
        <route edges="24_3way_9to4way_8 36_4way_8to4way_7"/>
    </vehicle>
    <vehicle id="81" depart="27.00">
        <route edges="1_3way_2to3way_1 2_3way_1to3way_5 5_3way_5to3way_10"/>
    </vehicle>
    <vehicle id="82" depart="27.33">
        <route edges="1_3way_1to3way_2 14_3way_2to3way_3 21_3way_3to3way_9 8_3way_9to3way_14"/>
    </vehicle>
    <vehicle id="83" depart="27.66">
        <route edges="9_3way_14to4way_13 28_4way_13to4way_12"/>
    </vehicle>
    <vehicle id="84" depart="28.00">
        <route edges="28_4way_13to4way_12 29_4way_12to4way_17 19_4way_17to3way_22"/>
    </vehicle>
    <vehicle id="85" depart="28.33">
        <route edges="3_3way_1to4way_6 27_4way_6to4way_11 26_4way_11to4way_16"/>
    </vehicle>
    <vehicle id="86" depart="28.66">
        <route edges="25_4way_11to4way_12 28_4way_12to4way_13 9_4way_13to3way_14 8_3way_14to3way_9"/>
    </vehicle>
    <vehicle id="87" depart="29.00">
        <route edges="8_3way_14to3way_9 24_3way_9to4way_8 36_4way_8to4way_7 35_4way_7to4way_6"/>
    </vehicle>
    <vehicle id="88" depart="29.33">
        <route edges="27_4way_6to4way_11 25_4way_11to4way_12 28_4way_12to4way_13"/>
    </vehicle>
    <vehicle id="89" depart="29.66">
        <route edges="23_4way_6to3way_5"/>
    </vehicle>
    <vehicle id="90" depart="30.00">
        <route edges="20_3way_23to4way_18 31_4way_18to4way_13 32_4way_13to4way_8 36_4way_8to4way_7"/>
    </vehicle>
    <vehicle id="91" depart="30.33">
        <route edges="9_3way_14to4way_13 28_4way_13to4way_12 29_4way_12to4way_17 19_4way_17to3way_22 16_3way_22to3way_21"/>
    </vehicle>
    <vehicle id="92" depart="30.66">
        <route edges="9_4way_13to3way_14 8_3way_14to3way_9"/>
    </vehicle>
    <vehicle id="93" depart="31.00">
        <route edges="6_3way_10to4way_11 25_4way_11to4way_12 30_4way_12to4way_7"/>
    </vehicle>
    <vehicle id="94" depart="31.33">
        <route edges="7_3way_19to3way_14"/>
    </vehicle>
    <vehicle id="95" depart="31.66">
        <route edges="4_3way_15to3way_10 5_3way_10to3way_5 2_3way_5to3way_1 1_3way_1to3way_2"/>
    </vehicle>
    <vehicle id="96" depart="32.00">
        <route edges="17_4way_16to3way_21 16_3way_21to3way_22 18_3way_22to3way_23"/>
    </vehicle>
    <vehicle id="97" depart="32.33">
        <route edges="8_3way_9to3way_14 7_3way_14to3way_19 12_3way_19to3way_23 18_3way_23to3way_22"/>
    </vehicle>
    <vehicle id="98" depart="32.66">
        <route edges="1_3way_2to3way_1"/>
    </vehicle>
    <vehicle id="99" depart="33.00">
        <route edges="11_3way_15to4way_16"/>
    </vehicle>
    <vehicle id="100" depart="33.33">
        <route edges="36_4way_8to4way_7 35_4way_7to4way_6 23_4way_6to3way_5"/>
    </vehicle>
    <vehicle id="101" depart="33.66">
        <route edges="9_3way_14to4way_13 31_4way_13to4way_18"/>
    </vehicle>
    <vehicle id="102" depart="34.00">
        <route edges="7_3way_19to3way_14 9_3way_14to4way_13 28_4way_13to4way_12 25_4way_12to4way_11"/>
    </vehicle>
    <vehicle id="103" depart="34.33">
        <route edges="15_4way_7to3way_2 1_3way_2to3way_1"/>
    </vehicle>
    <vehicle id="104" depart="34.66">
        <route edges="16_3way_21to3way_22 18_3way_22to3way_23"/>
    </vehicle>
    <vehicle id="105" depart="35.00">
        <route edges="29_4way_17to4way_12 30_4way_12to4way_7 35_4way_7to4way_6"/>
    </vehicle>
    <vehicle id="106" depart="35.33">
        <route edges="36_4way_8to4way_7 35_4way_7to4way_6 27_4way_6to4way_11"/>
    </vehicle>
    <vehicle id="107" depart="35.66">
        <route edges="29_4way_12to4way_17 34_4way_17to4way_18 13_4way_18to3way_19"/>
    </vehicle>
    <vehicle id="108" depart="36.00">
        <route edges="13_4way_18to3way_19 7_3way_19to3way_14 8_3way_14to3way_9"/>
    </vehicle>
    <vehicle id="109" depart="36.33">
        <route edges="9_3way_14to4way_13 28_4way_13to4way_12 25_4way_12to4way_11 26_4way_11to4way_16"/>
    </vehicle>
    <vehicle id="110" depart="36.66">
        <route edges="30_4way_7to4way_12 28_4way_12to4way_13"/>
    </vehicle>
    <vehicle id="111" depart="37.00">
        <route edges="7_3way_14to3way_19"/>
    </vehicle>
    <vehicle id="112" depart="37.33">
        <route edges="2_3way_1to3way_5 5_3way_5to3way_10"/>
    </vehicle>
    <vehicle id="113" depart="37.66">
        <route edges="16_3way_21to3way_22 18_3way_22to3way_23 12_3way_23to3way_19 7_3way_19to3way_14"/>
    </vehicle>
    <vehicle id="114" depart="38.00">
        <route edges="10_3way_15to3way_21 16_3way_21to3way_22"/>
    </vehicle>
    <vehicle id="115" depart="38.33">
        <route edges="27_4way_6to4way_11 26_4way_11to4way_16 33_4way_16to4way_17 34_4way_17to4way_18 13_4way_18to3way_19"/>
    </vehicle>
    <vehicle id="116" depart="38.66">
        <route edges="22_3way_3to4way_8"/>
    </vehicle>
    <vehicle id="117" depart="39.00">
        <route edges="14_3way_3to3way_2 1_3way_2to3way_1 2_3way_1to3way_5 5_3way_5to3way_10"/>
    </vehicle>
    <vehicle id="118" depart="39.33">
        <route edges="16_3way_21to3way_22 19_3way_22to4way_17 29_4way_17to4way_12 30_4way_12to4way_7"/>
    </vehicle>
    <vehicle id="119" depart="39.66">
        <route edges="24_3way_9to4way_8 36_4way_8to4way_7 35_4way_7to4way_6 23_4way_6to3way_5"/>
    </vehicle>
    <vehicle id="120" depart="40.00">
        <route edges="6_3way_10to4way_11 25_4way_11to4way_12 28_4way_12to4way_13 9_4way_13to3way_14 8_3way_14to3way_9"/>
    </vehicle>
    <vehicle id="121" depart="40.33">
        <route edges="31_4way_13to4way_18 20_4way_18to3way_23 18_3way_23to3way_22"/>
    </vehicle>
    <vehicle id="122" depart="40.66">
        <route edges="30_4way_7to4way_12"/>
    </vehicle>
    <vehicle id="123" depart="41.00">
        <route edges="15_3way_2to4way_7 36_4way_7to4way_8"/>
    </vehicle>
    <vehicle id="124" depart="41.33">
        <route edges="23_4way_6to3way_5"/>
    </vehicle>
    <vehicle id="125" depart="41.66">
        <route edges="20_3way_23to4way_18"/>
    </vehicle>
    <vehicle id="126" depart="42.00">
        <route edges="22_3way_3to4way_8 32_4way_8to4way_13 31_4way_13to4way_18 13_4way_18to3way_19"/>
    </vehicle>
    <vehicle id="127" depart="42.33">
        <route edges="32_4way_13to4way_8 22_4way_8to3way_3 14_3way_3to3way_2 1_3way_2to3way_1"/>
    </vehicle>
    <vehicle id="128" depart="42.66">
        <route edges="25_4way_12to4way_11 26_4way_11to4way_16"/>
    </vehicle>
    <vehicle id="129" depart="43.00">
        <route edges="27_4way_6to4way_11 26_4way_11to4way_16 33_4way_16to4way_17 34_4way_17to4way_18 13_4way_18to3way_19"/>
    </vehicle>
    <vehicle id="130" depart="43.33">
        <route edges="5_3way_10to3way_5 2_3way_5to3way_1 1_3way_1to3way_2"/>
    </vehicle>
    <vehicle id="131" depart="43.66">
        <route edges="32_4way_8to4way_13 31_4way_13to4way_18"/>
    </vehicle>
    <vehicle id="132" depart="44.00">
        <route edges="20_4way_18to3way_23 18_3way_23to3way_22"/>
    </vehicle>
    <vehicle id="133" depart="44.33">
        <route edges="9_4way_13to3way_14"/>
    </vehicle>
    <vehicle id="134" depart="44.66">
        <route edges="28_4way_12to4way_13"/>
    </vehicle>
    <vehicle id="135" depart="45.00">
        <route edges="36_4way_8to4way_7 35_4way_7to4way_6 27_4way_6to4way_11"/>
    </vehicle>
    <vehicle id="136" depart="45.33">
        <route edges="19_4way_17to3way_22 18_3way_22to3way_23"/>
    </vehicle>
    <vehicle id="137" depart="45.66">
        <route edges="3_3way_1to4way_6"/>
    </vehicle>
    <vehicle id="138" depart="46.00">
        <route edges="24_3way_9to4way_8 36_4way_8to4way_7 30_4way_7to4way_12 29_4way_12to4way_17 19_4way_17to3way_22"/>
    </vehicle>
    <vehicle id="139" depart="46.33">
        <route edges="4_3way_10to3way_15 11_3way_15to4way_16 33_4way_16to4way_17 34_4way_17to4way_18"/>
    </vehicle>
    <vehicle id="140" depart="46.66">
        <route edges="6_4way_11to3way_10"/>
    </vehicle>
    <vehicle id="141" depart="47.00">
        <route edges="14_3way_3to3way_2 15_3way_2to4way_7 30_4way_7to4way_12 29_4way_12to4way_17 19_4way_17to3way_22"/>
    </vehicle>
    <vehicle id="142" depart="47.33">
        <route edges="24_3way_9to4way_8 36_4way_8to4way_7 30_4way_7to4way_12 29_4way_12to4way_17"/>
    </vehicle>
    <vehicle id="143" depart="47.66">
        <route edges="9_3way_14to4way_13 28_4way_13to4way_12 25_4way_12to4way_11 6_4way_11to3way_10"/>
    </vehicle>
    <vehicle id="144" depart="48.00">
        <route edges="22_4way_8to3way_3"/>
    </vehicle>
    <vehicle id="145" depart="48.33">
        <route edges="28_4way_12to4way_13"/>
    </vehicle>
    <vehicle id="146" depart="48.66">
        <route edges="15_3way_2to4way_7 30_4way_7to4way_12 29_4way_12to4way_17 19_4way_17to3way_22 18_3way_22to3way_23"/>
    </vehicle>
    <vehicle id="147" depart="49.00">
        <route edges="9_3way_14to4way_13 28_4way_13to4way_12 25_4way_12to4way_11 26_4way_11to4way_16 17_4way_16to3way_21"/>
    </vehicle>
    <vehicle id="148" depart="49.33">
        <route edges="14_3way_2to3way_3"/>
    </vehicle>
    <vehicle id="149" depart="49.66">
        <route edges="3_3way_1to4way_6 35_4way_6to4way_7"/>
    </vehicle>
    <vehicle id="150" depart="50.00">
        <route edges="24_3way_9to4way_8 36_4way_8to4way_7 30_4way_7to4way_12"/>
    </vehicle>
    <vehicle id="151" depart="50.33">
        <route edges="13_3way_19to4way_18 34_4way_18to4way_17 33_4way_17to4way_16"/>
    </vehicle>
    <vehicle id="152" depart="50.66">
        <route edges="5_3way_5to3way_10 4_3way_10to3way_15 10_3way_15to3way_21"/>
    </vehicle>
    <vehicle id="153" depart="51.00">
        <route edges="36_4way_7to4way_8"/>
    </vehicle>
    <vehicle id="154" depart="51.33">
        <route edges="21_3way_3to3way_9 8_3way_9to3way_14 7_3way_14to3way_19"/>
    </vehicle>
    <vehicle id="155" depart="51.66">
        <route edges="20_3way_23to4way_18 31_4way_18to4way_13 32_4way_13to4way_8 22_4way_8to3way_3 14_3way_3to3way_2"/>
    </vehicle>
    <vehicle id="156" depart="52.00">
        <route edges="11_3way_15to4way_16 33_4way_16to4way_17 34_4way_17to4way_18 13_4way_18to3way_19"/>
    </vehicle>
    <vehicle id="157" depart="52.33">
        <route edges="18_3way_22to3way_23 12_3way_23to3way_19"/>
    </vehicle>
    <vehicle id="158" depart="52.66">
        <route edges="28_4way_12to4way_13 9_4way_13to3way_14 8_3way_14to3way_9"/>
    </vehicle>
    <vehicle id="159" depart="53.00">
        <route edges="33_4way_16to4way_17 29_4way_17to4way_12 30_4way_12to4way_7 15_4way_7to3way_2"/>
    </vehicle>
    <vehicle id="160" depart="53.33">
        <route edges="18_3way_22to3way_23 12_3way_23to3way_19"/>
    </vehicle>
    <vehicle id="161" depart="53.66">
        <route edges="7_3way_19to3way_14 8_3way_14to3way_9 24_3way_9to4way_8 36_4way_8to4way_7 35_4way_7to4way_6"/>
    </vehicle>
    <vehicle id="162" depart="54.00">
        <route edges="7_3way_14to3way_19 12_3way_19to3way_23 18_3way_23to3way_22"/>
    </vehicle>
    <vehicle id="163" depart="54.33">
        <route edges="2_3way_1to3way_5 5_3way_5to3way_10 4_3way_10to3way_15"/>
    </vehicle>
    <vehicle id="164" depart="54.66">
        <route edges="15_3way_2to4way_7 30_4way_7to4way_12"/>
    </vehicle>
    <vehicle id="165" depart="54.99">
        <route edges="18_3way_23to3way_22 16_3way_22to3way_21 10_3way_21to3way_15 4_3way_15to3way_10"/>
    </vehicle>
    <vehicle id="166" depart="55.33">
        <route edges="31_4way_18to4way_13 32_4way_13to4way_8 36_4way_8to4way_7 35_4way_7to4way_6"/>
    </vehicle>
    <vehicle id="167" depart="55.66">
        <route edges="3_3way_1to4way_6 27_4way_6to4way_11"/>
    </vehicle>
    <vehicle id="168" depart="55.99">
        <route edges="4_3way_10to3way_15"/>
    </vehicle>
    <vehicle id="169" depart="56.33">
        <route edges="26_4way_16to4way_11 27_4way_11to4way_6 23_4way_6to3way_5"/>
    </vehicle>
    <vehicle id="170" depart="56.66">
        <route edges="21_3way_3to3way_9 8_3way_9to3way_14 7_3way_14to3way_19"/>
    </vehicle>
    <vehicle id="171" depart="56.99">
        <route edges="34_4way_18to4way_17 33_4way_17to4way_16 17_4way_16to3way_21"/>
    </vehicle>
    <vehicle id="172" depart="57.33">
        <route edges="24_4way_8to3way_9"/>
    </vehicle>
    <vehicle id="173" depart="57.66">
        <route edges="4_3way_15to3way_10 5_3way_10to3way_5"/>
    </vehicle>
    <vehicle id="174" depart="57.99">
        <route edges="11_3way_15to4way_16 33_4way_16to4way_17 34_4way_17to4way_18 31_4way_18to4way_13 32_4way_13to4way_8"/>
    </vehicle>
    <vehicle id="175" depart="58.33">
        <route edges="16_3way_21to3way_22 19_3way_22to4way_17 29_4way_17to4way_12 30_4way_12to4way_7"/>
    </vehicle>
    <vehicle id="176" depart="58.66">
        <route edges="33_4way_16to4way_17 34_4way_17to4way_18 31_4way_18to4way_13 32_4way_13to4way_8"/>
    </vehicle>
    <vehicle id="177" depart="58.99">
        <route edges="20_3way_23to4way_18 34_4way_18to4way_17 33_4way_17to4way_16"/>
    </vehicle>
    <vehicle id="178" depart="59.33">
        <route edges="25_4way_11to4way_12 30_4way_12to4way_7"/>
    </vehicle>
    <vehicle id="179" depart="59.66">
        <route edges="8_3way_9to3way_14 7_3way_14to3way_19"/>
    </vehicle>
    <vehicle id="180" depart="59.99">
        <route edges="31_4way_18to4way_13 28_4way_13to4way_12"/>
    </vehicle>
    <vehicle id="181" depart="60.33">
        <route edges="23_4way_6to3way_5 5_3way_5to3way_10 4_3way_10to3way_15"/>
    </vehicle>
    <vehicle id="182" depart="60.66">
        <route edges="11_3way_15to4way_16 33_4way_16to4way_17 34_4way_17to4way_18 31_4way_18to4way_13 32_4way_13to4way_8"/>
    </vehicle>
    <vehicle id="183" depart="60.99">
        <route edges="27_4way_6to4way_11 25_4way_11to4way_12 28_4way_12to4way_13"/>
    </vehicle>
    <vehicle id="184" depart="61.33">
        <route edges="28_4way_13to4way_12 29_4way_12to4way_17"/>
    </vehicle>
    <vehicle id="185" depart="61.66">
        <route edges="24_3way_9to4way_8 36_4way_8to4way_7 30_4way_7to4way_12 29_4way_12to4way_17"/>
    </vehicle>
    <vehicle id="186" depart="61.99">
        <route edges="17_3way_21to4way_16 26_4way_16to4way_11"/>
    </vehicle>
    <vehicle id="187" depart="62.33">
        <route edges="16_3way_21to3way_22 19_3way_22to4way_17 29_4way_17to4way_12 30_4way_12to4way_7 15_4way_7to3way_2"/>
    </vehicle>
    <vehicle id="188" depart="62.66">
        <route edges="34_4way_17to4way_18 13_4way_18to3way_19"/>
    </vehicle>
    <vehicle id="189" depart="62.99">
        <route edges="31_4way_18to4way_13 32_4way_13to4way_8 22_4way_8to3way_3 14_3way_3to3way_2 1_3way_2to3way_1"/>
    </vehicle>
    <vehicle id="190" depart="63.33">
        <route edges="21_3way_9to3way_3 14_3way_3to3way_2 1_3way_2to3way_1"/>
    </vehicle>
    <vehicle id="191" depart="63.66">
        <route edges="28_4way_13to4way_12 25_4way_12to4way_11 26_4way_11to4way_16 17_4way_16to3way_21"/>
    </vehicle>
    <vehicle id="192" depart="63.99">
        <route edges="32_4way_13to4way_8 22_4way_8to3way_3"/>
    </vehicle>
    <vehicle id="193" depart="64.33">
        <route edges="11_3way_15to4way_16 33_4way_16to4way_17 34_4way_17to4way_18 31_4way_18to4way_13 32_4way_13to4way_8"/>
    </vehicle>
    <vehicle id="194" depart="64.66">
        <route edges="9_3way_14to4way_13 31_4way_13to4way_18 20_4way_18to3way_23"/>
    </vehicle>
    <vehicle id="195" depart="64.99">
        <route edges="3_3way_1to4way_6"/>
    </vehicle>
    <vehicle id="196" depart="65.33">
        <route edges="4_3way_15to3way_10 5_3way_10to3way_5 2_3way_5to3way_1"/>
    </vehicle>
    <vehicle id="197" depart="65.66">
        <route edges="7_3way_19to3way_14 8_3way_14to3way_9 21_3way_9to3way_3 14_3way_3to3way_2"/>
    </vehicle>
    <vehicle id="198" depart="65.99">
        <route edges="7_3way_19to3way_14"/>
    </vehicle>
    <vehicle id="199" depart="66.33">
        <route edges="1_3way_1to3way_2 14_3way_2to3way_3"/>
    </vehicle>
    <vehicle id="200" depart="66.66">
        <route edges="35_4way_6to4way_7 36_4way_7to4way_8 22_4way_8to3way_3"/>
    </vehicle>
    <vehicle id="201" depart="66.99">
        <route edges="8_3way_9to3way_14 7_3way_14to3way_19 12_3way_19to3way_23 18_3way_23to3way_22 16_3way_22to3way_21"/>
    </vehicle>
    <vehicle id="202" depart="67.33">
        <route edges="6_3way_10to4way_11"/>
    </vehicle>
    <vehicle id="203" depart="67.66">
        <route edges="15_3way_2to4way_7 30_4way_7to4way_12 29_4way_12to4way_17 34_4way_17to4way_18"/>
    </vehicle>
    <vehicle id="204" depart="67.99">
        <route edges="20_3way_23to4way_18 31_4way_18to4way_13 28_4way_13to4way_12"/>
    </vehicle>
    <vehicle id="205" depart="68.33">
        <route edges="25_4way_11to4way_12 28_4way_12to4way_13 9_4way_13to3way_14 7_3way_14to3way_19"/>
    </vehicle>
    <vehicle id="206" depart="68.66">
        <route edges="25_4way_11to4way_12 28_4way_12to4way_13 9_4way_13to3way_14 7_3way_14to3way_19"/>
    </vehicle>
    <vehicle id="207" depart="68.99">
        <route edges="17_3way_21to4way_16 26_4way_16to4way_11 6_4way_11to3way_10"/>
    </vehicle>
    <vehicle id="208" depart="69.33">
        <route edges="18_3way_23to3way_22 16_3way_22to3way_21 10_3way_21to3way_15 4_3way_15to3way_10 5_3way_10to3way_5"/>
    </vehicle>
    <vehicle id="209" depart="69.66">
        <route edges="17_3way_21to4way_16"/>
    </vehicle>
    <vehicle id="210" depart="69.99">
        <route edges="19_4way_17to3way_22"/>
    </vehicle>
    <vehicle id="211" depart="70.33">
        <route edges="3_3way_1to4way_6 27_4way_6to4way_11 25_4way_11to4way_12 28_4way_12to4way_13"/>
    </vehicle>
    <vehicle id="212" depart="70.66">
        <route edges="18_3way_22to3way_23 12_3way_23to3way_19 7_3way_19to3way_14"/>
    </vehicle>
    <vehicle id="213" depart="70.99">
        <route edges="34_4way_18to4way_17"/>
    </vehicle>
    <vehicle id="214" depart="71.33">
        <route edges="31_4way_13to4way_18"/>
    </vehicle>
    <vehicle id="215" depart="71.66">
        <route edges="20_4way_18to3way_23"/>
    </vehicle>
    <vehicle id="216" depart="71.99">
        <route edges="22_3way_3to4way_8 32_4way_8to4way_13 31_4way_13to4way_18 13_4way_18to3way_19"/>
    </vehicle>
    <vehicle id="217" depart="72.33">
        <route edges="9_3way_14to4way_13"/>
    </vehicle>
    <vehicle id="218" depart="72.66">
        <route edges="1_3way_2to3way_1 3_3way_1to4way_6 27_4way_6to4way_11 26_4way_11to4way_16"/>
    </vehicle>
    <vehicle id="219" depart="72.99">