<routes xmlns:xsi="http://www.w3.org/2001/XMLSchema-instance" xsi:noNamespaceSchemaLocation="http://sumo.dlr.de/xsd/routes_file.xsd">
<trip id="0" depart="0.0" fromJunction="4way_67" toJunction="4way_12"/>
<trip id="1" depart="0.1851" fromJunction="4way_65" toJunction="4way_48"/>
<trip id="2" depart="0.3702" fromJunction="4way_13" toJunction="4way_46"/>
<trip id="3" depart="0.5552999999999999" fromJunction="4way_60" toJunction="4way_55"/>
<trip id="4" depart="0.7404" fromJunction="4way_19" toJunction="4way_52"/>
<trip id="5" depart="0.9255" fromJunction="4way_56" toJunction="4way_50"/>
<trip id="6" depart="1.1105999999999998" fromJunction="4way_25" toJunction="4way_21"/>
<trip id="7" depart="1.2956999999999999" fromJunction="3way_7" toJunction="3way_6"/>
<trip id="8" depart="1.4808" fromJunction="4way_24" toJunction="3way_2"/>
<trip id="9" depart="1.6659" fromJunction="4way_42" toJunction="4way_41"/>
<trip id="10" depart="1.851" fromJunction="4way_59" toJunction="4way_61"/>
<trip id="11" depart="2.0361" fromJunction="4way_50" toJunction="4way_11"/>
<trip id="12" depart="2.2211999999999996" fromJunction="4way_13" toJunction="3way_35"/>
<trip id="13" depart="2.4063" fromJunction="4way_34" toJunction="3way_53"/>
<trip id="14" depart="2.5913999999999997" fromJunction="4way_37" toJunction="4way_56"/>
<trip id="15" depart="2.7765" fromJunction="4way_41" toJunction="3way_73"/>
<trip id="16" depart="2.9616" fromJunction="4way_21" toJunction="4way_11"/>
<trip id="17" depart="3.1466999999999996" fromJunction="4way_57" toJunction="3way_2"/>
<trip id="18" depart="3.3318" fromJunction="4way_40" toJunction="4way_34"/>
<trip id="19" depart="3.5168999999999997" fromJunction="4way_55" toJunction="3way_9"/>
<trip id="20" depart="3.702" fromJunction="3way_5" toJunction="4way_49"/>
<trip id="21" depart="3.8870999999999998" fromJunction="3way_35" toJunction="3way_77"/>
<trip id="22" depart="4.0722" fromJunction="4way_10" toJunction="3way_36"/>
<trip id="23" depart="4.2573" fromJunction="4way_55" toJunction="4way_21"/>
<trip id="24" depart="4.442399999999999" fromJunction="3way_17" toJunction="4way_70"/>
<trip id="25" depart="4.6274999999999995" fromJunction="3way_62" toJunction="3way_77"/>
<trip id="26" depart="4.8126" fromJunction="3way_74" toJunction="4way_22"/>
<trip id="27" depart="4.9977" fromJunction="3way_75" toJunction="4way_11"/>
<trip id="28" depart="5.182799999999999" fromJunction="3way_26" toJunction="3way_62"/>
<trip id="29" depart="5.3679" fromJunction="3way_44" toJunction="4way_22"/>
<trip id="30" depart="5.553" fromJunction="4way_10" toJunction="3way_78"/>
<trip id="31" depart="5.738099999999999" fromJunction="3way_17" toJunction="4way_15"/>
<trip id="32" depart="5.9232" fromJunction="3way_17" toJunction="4way_24"/>
<trip id="33" depart="6.1083" fromJunction="4way_20" toJunction="4way_61"/>
<trip id="34" depart="6.293399999999999" fromJunction="4way_48" toJunction="4way_61"/>
<trip id="35" depart="6.4784999999999995" fromJunction="3way_4" toJunction="4way_14"/>
<trip id="36" depart="6.6636" fromJunction="3way_35" toJunction="3way_63"/>
<trip id="37" depart="6.848699999999999" fromJunction="3way_35" toJunction="3way_54"/>
<trip id="38" depart="7.033799999999999" fromJunction="4way_37" toJunction="3way_36"/>
<trip id="39" depart="7.2189" fromJunction="4way_49" toJunction="3way_5"/>
<trip id="40" depart="7.404" fromJunction="3way_73" toJunction="4way_21"/>
<trip id="41" depart="7.589099999999999" fromJunction="3way_17" toJunction="4way_56"/>
<trip id="42" depart="7.7741999999999996" fromJunction="4way_25" toJunction="4way_30"/>
<trip id="43" depart="7.9593" fromJunction="4way_31" toJunction="3way_36"/>
<trip id="44" depart="8.1444" fromJunction="4way_67" toJunction="3way_44"/>
<trip id="45" depart="8.3295" fromJunction="3way_79" toJunction="3way_54"/>
<trip id="46" depart="8.5146" fromJunction="3way_2" toJunction="4way_39"/>
<trip id="47" depart="8.6997" fromJunction="3way_1" toJunction="4way_15"/>
<trip id="48" depart="8.884799999999998" fromJunction="3way_73" toJunction="4way_40"/>
<trip id="49" depart="9.069899999999999" fromJunction="4way_52" toJunction="4way_14"/>
<trip id="50" depart="9.254999999999999" fromJunction="4way_30" toJunction="3way_74"/>
<trip id="51" depart="9.4401" fromJunction="4way_30" toJunction="4way_39"/>
<trip id="52" depart="9.6252" fromJunction="4way_43" toJunction="3way_76"/>
<trip id="53" depart="9.8103" fromJunction="4way_33" toJunction="4way_64"/>
<trip id="54" depart="9.9954" fromJunction="3way_54" toJunction="4way_49"/>
<trip id="55" depart="10.180499999999999" fromJunction="4way_28" toJunction="4way_68"/>
<trip id="56" depart="10.365599999999999" fromJunction="4way_30" toJunction="4way_51"/>
<trip id="57" depart="10.550699999999999" fromJunction="4way_49" toJunction="4way_51"/>
<trip id="58" depart="10.7358" fromJunction="4way_38" toJunction="4way_67"/>
<trip id="59" depart="10.9209" fromJunction="4way_13" toJunction="4way_43"/>
<trip id="60" depart="11.106" fromJunction="4way_48" toJunction="4way_46"/>
<trip id="61" depart="11.291099999999998" fromJunction="3way_45" toJunction="3way_2"/>
<trip id="62" depart="11.476199999999999" fromJunction="3way_54" toJunction="4way_22"/>
<trip id="63" depart="11.661299999999999" fromJunction="4way_55" toJunction="4way_57"/>
<trip id="64" depart="11.8464" fromJunction="3way_54" toJunction="3way_44"/>
<trip id="65" depart="12.0315" fromJunction="4way_39" toJunction="4way_21"/>
<trip id="66" depart="12.2166" fromJunction="4way_22" toJunction="4way_30"/>
<trip id="67" depart="12.4017" fromJunction="4way_55" toJunction="4way_22"/>
<trip id="68" depart="12.586799999999998" fromJunction="4way_10" toJunction="4way_69"/>
<trip id="69" depart="12.771899999999999" fromJunction="4way_60" toJunction="4way_55"/>
<trip id="70" depart="12.956999999999999" fromJunction="4way_58" toJunction="4way_68"/>
<trip id="71" depart="13.1421" fromJunction="4way_16" toJunction="3way_17"/>
<trip id="72" depart="13.3272" fromJunction="4way_70" toJunction="4way_58"/>
<trip id="73" depart="13.5123" fromJunction="4way_42" toJunction="3way_53"/>
<trip id="74" depart="13.697399999999998" fromJunction="4way_57" toJunction="3way_62"/>
<trip id="75" depart="13.882499999999999" fromJunction="4way_33" toJunction="3way_35"/>
<trip id="76" depart="14.067599999999999" fromJunction="4way_21" toJunction="4way_68"/>
<trip id="77" depart="14.252699999999999" fromJunction="3way_6" toJunction="4way_37"/>
<trip id="78" depart="14.4378" fromJunction="4way_64" toJunction="4way_49"/>
<trip id="79" depart="14.6229" fromJunction="4way_42" toJunction="4way_67"/>
<trip id="80" depart="14.808" fromJunction="4way_33" toJunction="4way_61"/>
<trip id="81" depart="14.993099999999998" fromJunction="3way_9" toJunction="3way_1"/>
<trip id="82" depart="15.178199999999999" fromJunction="3way_71" toJunction="4way_14"/>
<trip id="83" depart="15.363299999999999" fromJunction="3way_5" toJunction="4way_56"/>
<trip id="84" depart="15.548399999999999" fromJunction="3way_2" toJunction="3way_78"/>
<trip id="85" depart="15.7335" fromJunction="3way_76" toJunction="4way_59"/>
<trip id="86" depart="15.9186" fromJunction="4way_25" toJunction="3way_18"/>
<trip id="87" depart="16.1037" fromJunction="3way_3" toJunction="4way_58"/>
<trip id="88" depart="16.2888" fromJunction="4way_57" toJunction="3way_62"/>
<trip id="89" depart="16.4739" fromJunction="3way_75" toJunction="4way_30"/>
<trip id="90" depart="16.659" fromJunction="4way_57" toJunction="4way_25"/>
<trip id="91" depart="16.844099999999997" fromJunction="4way_39" toJunction="4way_65"/>
<trip id="92" depart="17.0292" fromJunction="3way_36" toJunction="4way_14"/>
<trip id="93" depart="17.214299999999998" fromJunction="3way_77" toJunction="4way_28"/>
<trip id="94" depart="17.3994" fromJunction="4way_34" toJunction="3way_79"/>
<trip id="95" depart="17.5845" fromJunction="4way_29" toJunction="4way_14"/>
<trip id="96" depart="17.769599999999997" fromJunction="3way_74" toJunction="3way_76"/>
<trip id="97" depart="17.9547" fromJunction="4way_55" toJunction="3way_5"/>
<trip id="98" depart="18.139799999999997" fromJunction="4way_49" toJunction="3way_36"/>
<trip id="99" depart="18.3249" fromJunction="3way_71" toJunction="4way_19"/>
<trip id="100" depart="18.509999999999998" fromJunction="3way_6" toJunction="3way_2"/>
<trip id="101" depart="18.6951" fromJunction="4way_64" toJunction="4way_40"/>
<trip id="102" depart="18.8802" fromJunction="4way_69" toJunction="4way_65"/>
<trip id="103" depart="19.065299999999997" fromJunction="3way_77" toJunction="4way_70"/>
<trip id="104" depart="19.2504" fromJunction="3way_73" toJunction="4way_31"/>
<trip id="105" depart="19.435499999999998" fromJunction="4way_32" toJunction="3way_2"/>
<trip id="106" depart="19.6206" fromJunction="4way_19" toJunction="3way_36"/>
<trip id="107" depart="19.805699999999998" fromJunction="4way_15" toJunction="4way_39"/>
<trip id="108" depart="19.9908" fromJunction="4way_51" toJunction="4way_66"/>
<trip id="109" depart="20.1759" fromJunction="4way_59" toJunction="3way_63"/>
<trip id="110" depart="20.360999999999997" fromJunction="4way_43" toJunction="3way_79"/>
<trip id="111" depart="20.5461" fromJunction="3way_77" toJunction="4way_40"/>
<trip id="112" depart="20.731199999999998" fromJunction="4way_14" toJunction="4way_34"/>
<trip id="113" depart="20.9163" fromJunction="3way_77" toJunction="3way_74"/>
<trip id="114" depart="21.101399999999998" fromJunction="3way_2" toJunction="4way_47"/>
<trip id="115" depart="21.2865" fromJunction="4way_46" toJunction="3way_78"/>
<trip id="116" depart="21.4716" fromJunction="4way_11" toJunction="4way_10"/>
<trip id="117" depart="21.656699999999997" fromJunction="4way_39" toJunction="3way_63"/>
<trip id="118" depart="21.8418" fromJunction="3way_35" toJunction="4way_42"/>
<trip id="119" depart="22.026899999999998" fromJunction="3way_44" toJunction="4way_47"/>
<trip id="120" depart="22.212" fromJunction="4way_28" toJunction="4way_67"/>
<trip id="121" depart="22.3971" fromJunction="3way_79" toJunction="4way_21"/>
<trip id="122" depart="22.582199999999997" fromJunction="4way_29" toJunction="3way_53"/>
<trip id="123" depart="22.7673" fromJunction="4way_34" toJunction="3way_9"/>
<trip id="124" depart="22.952399999999997" fromJunction="4way_23" toJunction="4way_32"/>
<trip id="125" depart="23.1375" fromJunction="3way_7" toJunction="4way_69"/>
<trip id="126" depart="23.322599999999998" fromJunction="4way_39" toJunction="4way_12"/>
<trip id="127" depart="23.5077" fromJunction="3way_54" toJunction="4way_52"/>
<trip id="128" depart="23.6928" fromJunction="3way_17" toJunction="3way_75"/>
<trip id="129" depart="23.877899999999997" fromJunction="4way_25" toJunction="3way_2"/>
<trip id="130" depart="24.063" fromJunction="4way_50" toJunction="4way_31"/>
<trip id="131" depart="24.248099999999997" fromJunction="4way_39" toJunction="3way_63"/>
<trip id="132" depart="24.4332" fromJunction="4way_29" toJunction="3way_5"/>
<trip id="133" depart="24.618299999999998" fromJunction="4way_51" toJunction="4way_61"/>
<trip id="134" depart="24.8034" fromJunction="4way_52" toJunction="3way_18"/>
<trip id="135" depart="24.9885" fromJunction="4way_43" toJunction="3way_76"/>
<trip id="136" depart="25.173599999999997" fromJunction="4way_59" toJunction="4way_34"/>
<trip id="137" depart="25.3587" fromJunction="4way_51" toJunction="4way_66"/>
<trip id="138" depart="25.543799999999997" fromJunction="4way_33" toJunction="3way_54"/>
<trip id="139" depart="25.7289" fromJunction="3way_2" toJunction="4way_57"/>
<trip id="140" depart="25.913999999999998" fromJunction="3way_53" toJunction="3way_18"/>
<trip id="141" depart="26.099099999999996" fromJunction="4way_20" toJunction="4way_61"/>
<trip id="142" depart="26.2842" fromJunction="4way_13" toJunction="4way_38"/>
<trip id="143" depart="26.469299999999997" fromJunction="3way_44" toJunction="4way_10"/>
<trip id="144" depart="26.6544" fromJunction="3way_79" toJunction="4way_15"/>
<trip id="145" depart="26.839499999999997" fromJunction="3way_76" toJunction="4way_47"/>
<trip id="146" depart="27.0246" fromJunction="4way_42" toJunction="3way_17"/>
<trip id="147" depart="27.209699999999998" fromJunction="4way_43" toJunction="4way_52"/>
<trip id="148" depart="27.394799999999996" fromJunction="4way_41" toJunction="4way_69"/>
<trip id="149" depart="27.5799" fromJunction="3way_7" toJunction="3way_27"/>
<trip id="150" depart="27.764999999999997" fromJunction="3way_76" toJunction="4way_37"/>
<trip id="151" depart="27.9501" fromJunction="3way_5" toJunction="3way_44"/>
<trip id="152" depart="28.135199999999998" fromJunction="3way_1" toJunction="4way_67"/>
<trip id="153" depart="28.3203" fromJunction="3way_53" toJunction="4way_41"/>
<trip id="154" depart="28.505399999999998" fromJunction="3way_75" toJunction="4way_31"/>
<trip id="155" depart="28.690499999999997" fromJunction="4way_12" toJunction="4way_46"/>
<trip id="156" depart="28.8756" fromJunction="4way_67" toJunction="4way_42"/>
<trip id="157" depart="29.060699999999997" fromJunction="3way_44" toJunction="3way_73"/>
<trip id="158" depart="29.2458" fromJunction="3way_45" toJunction="3way_5"/>
<trip id="159" depart="29.430899999999998" fromJunction="4way_11" toJunction="3way_73"/>
<trip id="160" depart="29.616" fromJunction="4way_49" toJunction="4way_40"/>
<trip id="161" depart="29.801099999999998" fromJunction="4way_19" toJunction="3way_63"/>
<trip id="162" depart="29.986199999999997" fromJunction="4way_50" toJunction="3way_71"/>
<trip id="163" depart="30.1713" fromJunction="4way_49" toJunction="3way_5"/>
<trip id="164" depart="30.356399999999997" fromJunction="4way_10" toJunction="3way_74"/>
<trip id="165" depart="30.5415" fromJunction="3way_63" toJunction="4way_39"/>
<trip id="166" depart="30.726599999999998" fromJunction="3way_78" toJunction="4way_10"/>
<trip id="167" depart="30.911699999999996" fromJunction="3way_4" toJunction="4way_11"/>
<trip id="168" depart="31.096799999999998" fromJunction="3way_6" toJunction="4way_59"/>
<trip id="169" depart="31.281899999999997" fromJunction="3way_45" toJunction="4way_47"/>
<trip id="170" depart="31.467" fromJunction="4way_43" toJunction="4way_30"/>
<trip id="171" depart="31.652099999999997" fromJunction="3way_3" toJunction="4way_13"/>
<trip id="172" depart="31.8372" fromJunction="4way_47" toJunction="4way_55"/>
<trip id="173" depart="32.022299999999994" fromJunction="4way_40" toJunction="4way_65"/>
<trip id="174" depart="32.2074" fromJunction="3way_35" toJunction="3way_63"/>
<trip id="175" depart="32.3925" fromJunction="4way_43" toJunction="4way_28"/>
<trip id="176" depart="32.5776" fromJunction="4way_69" toJunction="3way_79"/>
<trip id="177" depart="32.762699999999995" fromJunction="4way_11" toJunction="4way_65"/>
<trip id="178" depart="32.9478" fromJunction="4way_11" toJunction="4way_51"/>
<trip id="179" depart="33.1329" fromJunction="4way_28" toJunction="4way_67"/>
<trip id="180" depart="33.318" fromJunction="4way_49" toJunction="4way_69"/>
<trip id="181" depart="33.503099999999996" fromJunction="3way_27" toJunction="4way_49"/>
<trip id="182" depart="33.688199999999995" fromJunction="4way_66" toJunction="4way_32"/>
<trip id="183" depart="33.8733" fromJunction="3way_62" toJunction="3way_75"/>
<trip id="184" depart="34.0584" fromJunction="4way_43" toJunction="4way_59"/>
<trip id="185" depart="34.2435" fromJunction="4way_39" toJunction="4way_11"/>
<trip id="186" depart="34.428599999999996" fromJunction="4way_11" toJunction="4way_42"/>
<trip id="187" depart="34.613699999999994" fromJunction="4way_30" toJunction="4way_43"/>
<trip id="188" depart="34.7988" fromJunction="4way_69" toJunction="4way_15"/>
<trip id="189" depart="34.9839" fromJunction="3way_62" toJunction="4way_68"/>
<trip id="190" depart="35.169" fromJunction="4way_28" toJunction="4way_66"/>
<trip id="191" depart="35.354099999999995" fromJunction="4way_46" toJunction="3way_5"/>
<trip id="192" depart="35.539199999999994" fromJunction="4way_33" toJunction="3way_74"/>
<trip id="193" depart="35.7243" fromJunction="4way_43" toJunction="3way_3"/>
<trip id="194" depart="35.9094" fromJunction="3way_79" toJunction="3way_2"/>
<trip id="195" depart="36.0945" fromJunction="4way_25" toJunction="4way_28"/>
<trip id="196" depart="36.279599999999995" fromJunction="4way_34" toJunction="3way_17"/>
<trip id="197" depart="36.4647" fromJunction="4way_64" toJunction="4way_42"/>
<trip id="198" depart="36.6498" fromJunction="3way_76" toJunction="3way_27"/>
<trip id="199" depart="36.8349" fromJunction="3way_3" toJunction="4way_57"/>
<trip id="200" depart="37.019999999999996" fromJunction="4way_55" toJunction="3way_2"/>
<trip id="201" depart="37.205099999999995" fromJunction="3way_74" toJunction="3way_6"/>
<trip id="202" depart="37.3902" fromJunction="3way_74" toJunction="3way_76"/>
<trip id="203" depart="37.5753" fromJunction="3way_1" toJunction="3way_44"/>
<trip id="204" depart="37.7604" fromJunction="4way_57" toJunction="3way_26"/>
<trip id="205" depart="37.945499999999996" fromJunction="4way_70" toJunction="4way_61"/>
<trip id="206" depart="38.130599999999994" fromJunction="3way_62" toJunction="4way_37"/>
<trip id="207" depart="38.3157" fromJunction="4way_29" toJunction="4way_13"/>
<trip id="208" depart="38.5008" fromJunction="3way_6" toJunction="4way_70"/>
<trip id="209" depart="38.6859" fromJunction="3way_54" toJunction="4way_50"/>
<trip id="210" depart="38.870999999999995" fromJunction="4way_31" toJunction="3way_75"/>
<trip id="211" depart="39.0561" fromJunction="4way_31" toJunction="3way_75"/>
<trip id="212" depart="39.2412" fromJunction="4way_46" toJunction="4way_47"/>
<trip id="213" depart="39.4263" fromJunction="3way_54" toJunction="4way_12"/>
<trip id="214" depart="39.611399999999996" fromJunction="4way_37" toJunction="4way_58"/>
<trip id="215" depart="39.796499999999995" fromJunction="4way_15" toJunction="3way_9"/>
<trip id="216" depart="39.9816" fromJunction="3way_4" toJunction="4way_25"/>
<trip id="217" depart="40.1667" fromJunction="3way_18" toJunction="3way_76"/>
<trip id="218" depart="40.3518" fromJunction="4way_61" toJunction="4way_68"/>
<trip id="219" depart="40.536899999999996" fromJunction="4way_69" toJunction="4way_52"/>
<trip id="220" depart="40.721999999999994" fromJunction="4way_70" toJunction="3way_54"/>
<trip id="221" depart="40.9071" fromJunction="3way_26" toJunction="3way_74"/>
<trip id="222" depart="41.0922" fromJunction="3way_76" toJunction="4way_43"/>
<trip id="223" depart="41.2773" fromJunction="3way_5" toJunction="4way_49"/>
<trip id="224" depart="41.462399999999995" fromJunction="4way_51" toJunction="4way_14"/>
<trip id="225" depart="41.647499999999994" fromJunction="4way_19" toJunction="3way_73"/>
<trip id="226" depart="41.8326" fromJunction="4way_23" toJunction="4way_10"/>
<trip id="227" depart="42.0177" fromJunction="3way_71" toJunction="3way_75"/>
<trip id="228" depart="42.202799999999996" fromJunction="3way_45" toJunction="4way_64"/>
<trip id="229" depart="42.387899999999995" fromJunction="3way_75" toJunction="4way_24"/>
<trip id="230" depart="42.573" fromJunction="4way_34" toJunction="4way_38"/>
<trip id="231" depart="42.7581" fromJunction="4way_42" toJunction="4way_66"/>
<trip id="232" depart="42.9432" fromJunction="4way_23" toJunction="4way_34"/>
<trip id="233" depart="43.128299999999996" fromJunction="4way_52" toJunction="4way_49"/>
<trip id="234" depart="43.313399999999994" fromJunction="4way_64" toJunction="4way_70"/>
<trip id="235" depart="43.4985" fromJunction="3way_54" toJunction="3way_6"/>
<trip id="236" depart="43.6836" fromJunction="4way_46" toJunction="3way_53"/>
<trip id="237" depart="43.8687" fromJunction="4way_48" toJunction="3way_44"/>
<trip id="238" depart="44.053799999999995" fromJunction="4way_60" toJunction="4way_19"/>
<trip id="239" depart="44.238899999999994" fromJunction="4way_12" toJunction="4way_52"/>
<trip id="240" depart="44.424" fromJunction="4way_39" toJunction="3way_63"/>
<trip id="241" depart="44.6091" fromJunction="4way_37" toJunction="4way_69"/>
<trip id="242" depart="44.7942" fromJunction="3way_73" toJunction="4way_12"/>
<trip id="243" depart="44.979299999999995" fromJunction="4way_28" toJunction="4way_11"/>
<trip id="244" depart="45.16439999999999" fromJunction="4way_38" toJunction="3way_74"/>
<trip id="245" depart="45.3495" fromJunction="4way_10" toJunction="3way_45"/>
<trip id="246" depart="45.5346" fromJunction="4way_23" toJunction="4way_56"/>
<trip id="247" depart="45.719699999999996" fromJunction="4way_25" toJunction="3way_27"/>
<trip id="248" depart="45.904799999999994" fromJunction="3way_4" toJunction="4way_42"/>
<trip id="249" depart="46.0899" fromJunction="4way_64" toJunction="3way_74"/>
<trip id="250" depart="46.275" fromJunction="3way_18" toJunction="3way_26"/>
<trip id="251" depart="46.4601" fromJunction="4way_40" toJunction="4way_14"/>
<trip id="252" depart="46.645199999999996" fromJunction="4way_58" toJunction="4way_57"/>
<trip id="253" depart="46.830299999999994" fromJunction="3way_18" toJunction="3way_78"/>
<trip id="254" depart="47.0154" fromJunction="4way_51" toJunction="4way_40"/>
<trip id="255" depart="47.2005" fromJunction="3way_63" toJunction="4way_65"/>
<trip id="256" depart="47.3856" fromJunction="4way_58" toJunction="3way_3"/>
<trip id="257" depart="47.570699999999995" fromJunction="4way_10" toJunction="3way_1"/>
<trip id="258" depart="47.755799999999994" fromJunction="4way_25" toJunction="4way_56"/>
<trip id="259" depart="47.9409" fromJunction="4way_37" toJunction="3way_7"/>
<trip id="260" depart="48.126" fromJunction="3way_18" toJunction="3way_2"/>
<trip id="261" depart="48.311099999999996" fromJunction="3way_63" toJunction="4way_57"/>
<trip id="262" depart="48.496199999999995" fromJunction="3way_26" toJunction="3way_77"/>
<trip id="263" depart="48.68129999999999" fromJunction="4way_49" toJunction="4way_30"/>
<trip id="264" depart="48.8664" fromJunction="4way_43" toJunction="4way_31"/>
<trip id="265" depart="49.0515" fromJunction="4way_13" toJunction="3way_1"/>
<trip id="266" depart="49.236599999999996" fromJunction="4way_39" toJunction="4way_48"/>
<trip id="267" depart="49.421699999999994" fromJunction="3way_2" toJunction="4way_52"/>
<trip id="268" depart="49.6068" fromJunction="4way_68" toJunction="4way_49"/>
<trip id="269" depart="49.7919" fromJunction="3way_27" toJunction="4way_47"/>
<trip id="270" depart="49.977" fromJunction="3way_17" toJunction="4way_50"/>
<trip id="271" depart="50.162099999999995" fromJunction="4way_56" toJunction="4way_64"/>
<trip id="272" depart="50.347199999999994" fromJunction="3way_7" toJunction="4way_49"/>
<trip id="273" depart="50.5323" fromJunction="4way_37" toJunction="3way_76"/>
<trip id="274" depart="50.7174" fromJunction="4way_60" toJunction="4way_57"/>
<trip id="275" depart="50.902499999999996" fromJunction="3way_44" toJunction="4way_57"/>
<trip id="276" depart="51.087599999999995" fromJunction="4way_51" toJunction="4way_61"/>
<trip id="277" depart="51.27269999999999" fromJunction="4way_25" toJunction="4way_38"/>
<trip id="278" depart="51.4578" fromJunction="4way_25" toJunction="4way_65"/>
<trip id="279" depart="51.6429" fromJunction="4way_52" toJunction="4way_15"/>
<trip id="280" depart="51.827999999999996" fromJunction="3way_3" toJunction="4way_16"/>
<trip id="281" depart="52.013099999999994" fromJunction="4way_19" toJunction="3way_71"/>
<trip id="282" depart="52.19819999999999" fromJunction="3way_45" toJunction="4way_43"/>
<trip id="283" depart="52.3833" fromJunction="4way_60" toJunction="3way_62"/>
<trip id="284" depart="52.5684" fromJunction="4way_69" toJunction="4way_64"/>
<trip id="285" depart="52.753499999999995" fromJunction="4way_22" toJunction="3way_62"/>
<trip id="286" depart="52.938599999999994" fromJunction="3way_6" toJunction="4way_55"/>
<trip id="287" depart="53.1237" fromJunction="3way_74" toJunction="4way_49"/>
<trip id="288" depart="53.3088" fromJunction="3way_5" toJunction="3way_4"/>
<trip id="289" depart="53.4939" fromJunction="4way_69" toJunction="3way_5"/>
<trip id="290" depart="53.678999999999995" fromJunction="4way_69" toJunction="4way_14"/>
<trip id="291" depart="53.86409999999999" fromJunction="4way_56" toJunction="4way_31"/>
<trip id="292" depart="54.0492" fromJunction="4way_70" toJunction="3way_45"/>
<trip id="293" depart="54.2343" fromJunction="4way_20" toJunction="3way_9"/>
<trip id="294" depart="54.419399999999996" fromJunction="4way_61" toJunction="4way_19"/>
<trip id="295" depart="54.604499999999994" fromJunction="3way_27" toJunction="3way_71"/>
<trip id="296" depart="54.78959999999999" fromJunction="3way_5" toJunction="4way_40"/>
<trip id="297" depart="54.9747" fromJunction="4way_20" toJunction="4way_48"/>
<trip id="298" depart="55.1598" fromJunction="3way_75" toJunction="3way_63"/>
<trip id="299" depart="55.344899999999996" fromJunction="4way_10" toJunction="4way_47"/>
<trip id="300" depart="55.529999999999994" fromJunction="3way_27" toJunction="4way_11"/>
<trip id="301" depart="55.71509999999999" fromJunction="3way_44" toJunction="4way_52"/>
<trip id="302" depart="55.9002" fromJunction="3way_18" toJunction="3way_17"/>
<trip id="303" depart="56.0853" fromJunction="4way_22" toJunction="4way_39"/>
<trip id="304" depart="56.270399999999995" fromJunction="4way_70" toJunction="4way_28"/>
<trip id="305" depart="56.455499999999994" fromJunction="4way_67" toJunction="3way_9"/>
<trip id="306" depart="56.6406" fromJunction="4way_68" toJunction="4way_13"/>
<trip id="307" depart="56.8257" fromJunction="4way_60" toJunction="4way_61"/>
<trip id="308" depart="57.010799999999996" fromJunction="4way_49" toJunction="4way_32"/>
<trip id="309" depart="57.195899999999995" fromJunction="3way_53" toJunction="3way_27"/>
<trip id="310" depart="57.38099999999999" fromJunction="3way_75" toJunction="3way_5"/>
<trip id="311" depart="57.5661" fromJunction="4way_56" toJunction="4way_55"/>
<trip id="312" depart="57.7512" fromJunction="4way_43" toJunction="4way_41"/>
<trip id="313" depart="57.936299999999996" fromJunction="3way_26" toJunction="3way_35"/>
<trip id="314" depart="58.121399999999994" fromJunction="4way_23" toJunction="4way_39"/>
<trip id="315" depart="58.30649999999999" fromJunction="4way_34" toJunction="4way_33"/>
<trip id="316" depart="58.4916" fromJunction="4way_28" toJunction="4way_61"/>
<trip id="317" depart="58.6767" fromJunction="3way_53" toJunction="4way_19"/>
<trip id="318" depart="58.861799999999995" fromJunction="4way_22" toJunction="4way_40"/>
<trip id="319" depart="59.046899999999994" fromJunction="3way_17" toJunction="4way_42"/>
<trip id="320" depart="59.232" fromJunction="4way_30" toJunction="4way_38"/>
<trip id="321" depart="59.4171" fromJunction="3way_71" toJunction="3way_75"/>
<trip id="322" depart="59.602199999999996" fromJunction="3way_5" toJunction="4way_42"/>
<trip id="323" depart="59.787299999999995" fromJunction="3way_26" toJunction="4way_20"/>
<trip id="324" depart="59.97239999999999" fromJunction="4way_61" toJunction="4way_11"/>
<trip id="325" depart="60.1575" fromJunction="4way_33" toJunction="4way_46"/>
<trip id="326" depart="60.3426" fromJunction="3way_73" toJunction="3way_35"/>
<trip id="327" depart="60.527699999999996" fromJunction="4way_28" toJunction="4way_37"/>
<trip id="328" depart="60.712799999999994" fromJunction="3way_18" toJunction="4way_31"/>
<trip id="329" depart="60.89789999999999" fromJunction="4way_13" toJunction="4way_58"/>
<trip id="330" depart="61.083" fromJunction="4way_55" toJunction="4way_28"/>
<trip id="331" depart="61.2681" fromJunction="3way_6" toJunction="4way_57"/>
<trip id="332" depart="61.453199999999995" fromJunction="4way_22" toJunction="4way_15"/>
<trip id="333" depart="61.638299999999994" fromJunction="4way_65" toJunction="4way_67"/>
<trip id="334" depart="61.82339999999999" fromJunction="4way_37" toJunction="3way_26"/>
<trip id="335" depart="62.0085" fromJunction="3way_36" toJunction="4way_37"/>
<trip id="336" depart="62.193599999999996" fromJunction="4way_14" toJunction="3way_3"/>
<trip id="337" depart="62.378699999999995" fromJunction="4way_48" toJunction="3way_26"/>
<trip id="338" depart="62.56379999999999" fromJunction="4way_66" toJunction="4way_58"/>
<trip id="339" depart="62.7489" fromJunction="3way_17" toJunction="4way_43"/>
<trip id="340" depart="62.934" fromJunction="3way_3" toJunction="4way_42"/>
<trip id="341" depart="63.119099999999996" fromJunction="4way_37" toJunction="4way_65"/>
<trip id="342" depart="63.304199999999994" fromJunction="4way_10" toJunction="4way_56"/>
<trip id="343" depart="63.48929999999999" fromJunction="3way_2" toJunction="3way_79"/>
<trip id="344" depart="63.6744" fromJunction="4way_24" toJunction="4way_47"/>
<trip id="345" depart="63.8595" fromJunction="3way_76" toJunction="4way_10"/>
<trip id="346" depart="64.04459999999999" fromJunction="3way_17" toJunction="3way_76"/>
<trip id="347" depart="64.2297" fromJunction="3way_6" toJunction="3way_73"/>
<trip id="348" depart="64.4148" fromJunction="4way_33" toJunction="3way_6"/>
<trip id="349" depart="64.59989999999999" fromJunction="4way_21" toJunction="3way_62"/>
<trip id="350" depart="64.785" fromJunction="4way_11" toJunction="4way_41"/>
<trip id="351" depart="64.9701" fromJunction="3way_78" toJunction="3way_53"/>
<trip id="352" depart="65.1552" fromJunction="4way_56" toJunction="4way_55"/>
<trip id="353" depart="65.3403" fromJunction="4way_50" toJunction="3way_18"/>
<trip id="354" depart="65.52539999999999" fromJunction="4way_25" toJunction="4way_23"/>
<trip id="355" depart="65.7105" fromJunction="4way_60" toJunction="3way_3"/>
<trip id="356" depart="65.8956" fromJunction="4way_51" toJunction="4way_28"/>
<trip id="357" depart="66.0807" fromJunction="4way_70" toJunction="4way_49"/>
<trip id="358" depart="66.2658" fromJunction="4way_10" toJunction="4way_32"/>
<trip id="359" depart="66.45089999999999" fromJunction="4way_10" toJunction="4way_38"/>
<trip id="360" depart="66.636" fromJunction="3way_73" toJunction="4way_10"/>
<trip id="361" depart="66.8211" fromJunction="4way_40" toJunction="4way_38"/>