<?xml version="1.0" encoding="UTF-8"?>

<!-- generated on 2023-08-01 23:39:11 by Eclipse SUMO netconvert Version 1.12.0
<configuration xmlns:xsi="http://www.w3.org/2001/XMLSchema-instance" xsi:noNamespaceSchemaLocation="http://sumo.dlr.de/xsd/netconvertConfiguration.xsd">

    <input>
        <node-files value="sq.nod.xml"/>
        <edge-files value="sq.edg.xml"/>
    </input>

    <output>
        <output-file value="sq.tmp.net.xml"/>
    </output>

    <processing>
        <lefthand value="true"/>
    </processing>

    <tls_building>
        <tls.discard-simple value="true"/>
        <tls.join value="true"/>
    </tls_building>

    <edge_removal>
        <keep-edges.components value="1"/>
    </edge_removal>

    <junctions>
        <no-turnarounds value="true"/>
    </junctions>

    <report>
        <aggregate-warnings value="5"/>
    </report>

</configuration>
-->

<net version="1.9" junctionCornerDetail="5" lefthand="true" limitTurnSpeed="5.50" xmlns:xsi="http://www.w3.org/2001/XMLSchema-instance" xsi:noNamespaceSchemaLocation="http://sumo.dlr.de/xsd/net_file.xsd">

    <location netOffset="0.00,1400.00" convBoundary="0.00,-0.00,1400.00,1400.00" origBoundary="0.00,-1400.00,1400.00,0.00" projParameter="!"/>

    <edge id=":3way_1_0" function="internal">
        <lane id=":3way_1_0_0" index="0" speed="6.51" length="9.03" shape="98.40,1392.80 98.05,1395.25 97.00,1397.00 95.25,1398.05 92.80,1398.40"/>
    </edge>
    <edge id=":3way_1_1" function="internal">
        <lane id=":3way_1_1_0" index="0" speed="8.00" length="14.19" shape="98.40,1392.80 98.95,1396.65 100.60,1399.40 103.35,1401.05 107.20,1401.60"/>
    </edge>
    <edge id=":3way_1_2" function="internal">
        <lane id=":3way_1_2_0" index="0" speed="6.51" length="9.03" shape="107.20,1398.40 104.75,1398.05 103.00,1397.00 101.95,1395.25 101.60,1392.80"/>
    </edge>
    <edge id=":3way_1_3" function="internal">
        <lane id=":3way_1_3_0" index="0" speed="13.89" length="14.40" shape="107.20,1398.40 92.80,1398.40"/>
    </edge>
    <edge id=":3way_1_4" function="internal">
        <lane id=":3way_1_4_0" index="0" speed="13.89" length="14.40" shape="92.80,1401.60 107.20,1401.60"/>
    </edge>
    <edge id=":3way_1_5" function="internal">
        <lane id=":3way_1_5_0" index="0" speed="8.00" length="4.07" shape="92.80,1401.60 96.65,1401.05 96.80,1400.96"/>
    </edge>
    <edge id=":3way_1_6" function="internal">
        <lane id=":3way_1_6_0" index="0" speed="8.00" length="10.13" shape="96.80,1400.96 99.40,1399.40 101.05,1396.65 101.60,1392.80"/>
    </edge>
    <edge id=":3way_10_0" function="internal">
        <lane id=":3way_10_0_0" index="0" speed="6.51" length="9.03" shape="998.40,1392.80 998.05,1395.25 997.00,1397.00 995.25,1398.05 992.80,1398.40"/>
    </edge>
    <edge id=":3way_10_1" function="internal">
        <lane id=":3way_10_1_0" index="0" speed="8.00" length="14.19" shape="998.40,1392.80 998.95,1396.65 1000.60,1399.40 1003.35,1401.05 1007.20,1401.60"/>
    </edge>
    <edge id=":3way_10_2" function="internal">
        <lane id=":3way_10_2_0" index="0" speed="6.51" length="9.03" shape="1007.20,1398.40 1004.75,1398.05 1003.00,1397.00 1001.95,1395.25 1001.60,1392.80"/>
    </edge>
    <edge id=":3way_10_3" function="internal">
        <lane id=":3way_10_3_0" index="0" speed="13.89" length="14.40" shape="1007.20,1398.40 992.80,1398.40"/>
    </edge>
    <edge id=":3way_10_4" function="internal">
        <lane id=":3way_10_4_0" index="0" speed="13.89" length="14.40" shape="992.80,1401.60 1007.20,1401.60"/>
    </edge>
    <edge id=":3way_10_5" function="internal">
        <lane id=":3way_10_5_0" index="0" speed="8.00" length="4.07" shape="992.80,1401.60 996.65,1401.05 996.80,1400.96"/>
    </edge>
    <edge id=":3way_10_6" function="internal">
        <lane id=":3way_10_6_0" index="0" speed="8.00" length="10.13" shape="996.80,1400.96 999.40,1399.40 1001.05,1396.65 1001.60,1392.80"/>
    </edge>
    <edge id=":3way_104_0" function="internal">
        <lane id=":3way_104_0_0" index="0" speed="6.51" length="9.03" shape="1398.40,792.80 1398.05,795.25 1397.00,797.00 1395.25,798.05 1392.80,798.40"/>
    </edge>
    <edge id=":3way_104_1" function="internal">
        <lane id=":3way_104_1_0" index="0" speed="13.89" length="14.40" shape="1398.40,792.80 1398.40,807.20"/>
    </edge>
    <edge id=":3way_104_2" function="internal">
        <lane id=":3way_104_2_0" index="0" speed="13.89" length="14.40" shape="1401.60,807.20 1401.60,792.80"/>
    </edge>
    <edge id=":3way_104_3" function="internal">
        <lane id=":3way_104_3_0" index="0" speed="8.00" length="4.07" shape="1401.60,807.20 1401.05,803.35 1400.96,803.20"/>
    </edge>
    <edge id=":3way_104_6" function="internal">
        <lane id=":3way_104_6_0" index="0" speed="8.00" length="10.13" shape="1400.96,803.20 1399.40,800.60 1396.65,798.95 1392.80,798.40"/>
    </edge>
    <edge id=":3way_104_4" function="internal">
        <lane id=":3way_104_4_0" index="0" speed="6.51" length="9.03" shape="1392.80,801.60 1395.25,801.95 1397.00,803.00 1398.05,804.75 1398.40,807.20"/>
    </edge>
    <edge id=":3way_104_5" function="internal">
        <lane id=":3way_104_5_0" index="0" speed="8.00" length="14.19" shape="1392.80,801.60 1396.65,801.05 1399.40,799.40 1401.05,796.65 1401.60,792.80"/>
    </edge>
    <edge id=":3way_105_0" function="internal">
        <lane id=":3way_105_0_0" index="0" speed="13.89" length="14.40" shape="-1.60,692.80 -1.60,707.20"/>
    </edge>
    <edge id=":3way_105_1" function="internal">
        <lane id=":3way_105_1_0" index="0" speed="8.00" length="4.07" shape="-1.60,692.80 -1.05,696.65 -0.96,696.80"/>
    </edge>
    <edge id=":3way_105_6" function="internal">
        <lane id=":3way_105_6_0" index="0" speed="8.00" length="10.13" shape="-0.96,696.80 0.60,699.40 3.35,701.05 7.20,701.60"/>
    </edge>
    <edge id=":3way_105_2" function="internal">
        <lane id=":3way_105_2_0" index="0" speed="6.51" length="9.03" shape="7.20,698.40 4.75,698.05 3.00,697.00 1.95,695.25 1.60,692.80"/>
    </edge>
    <edge id=":3way_105_3" function="internal">
        <lane id=":3way_105_3_0" index="0" speed="8.00" length="14.19" shape="7.20,698.40 3.35,698.95 0.60,700.60 -1.05,703.35 -1.60,707.20"/>
    </edge>
    <edge id=":3way_105_4" function="internal">
        <lane id=":3way_105_4_0" index="0" speed="6.51" length="9.03" shape="1.60,707.20 1.95,704.75 3.00,703.00 4.75,701.95 7.20,701.60"/>
    </edge>
    <edge id=":3way_105_5" function="internal">
        <lane id=":3way_105_5_0" index="0" speed="13.89" length="14.40" shape="1.60,707.20 1.60,692.80"/>
    </edge>
    <edge id=":3way_11_0" function="internal">
        <lane id=":3way_11_0_0" index="0" speed="6.51" length="9.03" shape="1098.40,1392.80 1098.05,1395.25 1097.00,1397.00 1095.25,1398.05 1092.80,1398.40"/>
    </edge>
    <edge id=":3way_11_1" function="internal">
        <lane id=":3way_11_1_0" index="0" speed="8.00" length="14.19" shape="1098.40,1392.80 1098.95,1396.65 1100.60,1399.40 1103.35,1401.05 1107.20,1401.60"/>
    </edge>
    <edge id=":3way_11_2" function="internal">
        <lane id=":3way_11_2_0" index="0" speed="6.51" length="9.03" shape="1107.20,1398.40 1104.75,1398.05 1103.00,1397.00 1101.95,1395.25 1101.60,1392.80"/>
    </edge>
    <edge id=":3way_11_3" function="internal">
        <lane id=":3way_11_3_0" index="0" speed="13.89" length="14.40" shape="1107.20,1398.40 1092.80,1398.40"/>
    </edge>
    <edge id=":3way_11_4" function="internal">
        <lane id=":3way_11_4_0" index="0" speed="13.89" length="14.40" shape="1092.80,1401.60 1107.20,1401.60"/>
    </edge>
    <edge id=":3way_11_5" function="internal">
        <lane id=":3way_11_5_0" index="0" speed="8.00" length="4.07" shape="1092.80,1401.60 1096.65,1401.05 1096.80,1400.96"/>
    </edge>
    <edge id=":3way_11_6" function="internal">
        <lane id=":3way_11_6_0" index="0" speed="8.00" length="10.13" shape="1096.80,1400.96 1099.40,1399.40 1101.05,1396.65 1101.60,1392.80"/>
    </edge>
    <edge id=":3way_119_0" function="internal">
        <lane id=":3way_119_0_0" index="0" speed="6.51" length="9.03" shape="1398.40,692.80 1398.05,695.25 1397.00,697.00 1395.25,698.05 1392.80,698.40"/>
    </edge>
    <edge id=":3way_119_1" function="internal">
        <lane id=":3way_119_1_0" index="0" speed="13.89" length="14.40" shape="1398.40,692.80 1398.40,707.20"/>
    </edge>
    <edge id=":3way_119_2" function="internal">
        <lane id=":3way_119_2_0" index="0" speed="13.89" length="14.40" shape="1401.60,707.20 1401.60,692.80"/>
    </edge>
    <edge id=":3way_119_3" function="internal">
        <lane id=":3way_119_3_0" index="0" speed="8.00" length="4.07" shape="1401.60,707.20 1401.05,703.35 1400.96,703.20"/>
    </edge>
    <edge id=":3way_119_6" function="internal">
        <lane id=":3way_119_6_0" index="0" speed="8.00" length="10.13" shape="1400.96,703.20 1399.40,700.60 1396.65,698.95 1392.80,698.40"/>
    </edge>
    <edge id=":3way_119_4" function="internal">
        <lane id=":3way_119_4_0" index="0" speed="6.51" length="9.03" shape="1392.80,701.60 1395.25,701.95 1397.00,703.00 1398.05,704.75 1398.40,707.20"/>
    </edge>
    <edge id=":3way_119_5" function="internal">
        <lane id=":3way_119_5_0" index="0" speed="8.00" length="14.19" shape="1392.80,701.60 1396.65,701.05 1399.40,699.40 1401.05,696.65 1401.60,692.80"/>
    </edge>
    <edge id=":3way_12_0" function="internal">
        <lane id=":3way_12_0_0" index="0" speed="6.51" length="9.03" shape="1198.40,1392.80 1198.05,1395.25 1197.00,1397.00 1195.25,1398.05 1192.80,1398.40"/>
    </edge>
    <edge id=":3way_12_1" function="internal">
        <lane id=":3way_12_1_0" index="0" speed="8.00" length="14.19" shape="1198.40,1392.80 1198.95,1396.65 1200.60,1399.40 1203.35,1401.05 1207.20,1401.60"/>
    </edge>
    <edge id=":3way_12_2" function="internal">
        <lane id=":3way_12_2_0" index="0" speed="6.51" length="9.03" shape="1207.20,1398.40 1204.75,1398.05 1203.00,1397.00 1201.95,1395.25 1201.60,1392.80"/>
    </edge>
    <edge id=":3way_12_3" function="internal">
        <lane id=":3way_12_3_0" index="0" speed="13.89" length="14.40" shape="1207.20,1398.40 1192.80,1398.40"/>
    </edge>
    <edge id=":3way_12_4" function="internal">
        <lane id=":3way_12_4_0" index="0" speed="13.89" length="14.40" shape="1192.80,1401.60 1207.20,1401.60"/>
    </edge>
    <edge id=":3way_12_5" function="internal">
        <lane id=":3way_12_5_0" index="0" speed="8.00" length="4.07" shape="1192.80,1401.60 1196.65,1401.05 1196.80,1400.96"/>
    </edge>
    <edge id=":3way_12_6" function="internal">
        <lane id=":3way_12_6_0" index="0" speed="8.00" length="10.13" shape="1196.80,1400.96 1199.40,1399.40 1201.05,1396.65 1201.60,1392.80"/>
    </edge>
    <edge id=":3way_120_0" function="internal">
        <lane id=":3way_120_0_0" index="0" speed="13.89" length="14.40" shape="-1.60,592.80 -1.60,607.20"/>
    </edge>
    <edge id=":3way_120_1" function="internal">
        <lane id=":3way_120_1_0" index="0" speed="8.00" length="4.07" shape="-1.60,592.80 -1.05,596.65 -0.96,596.80"/>
    </edge>
    <edge id=":3way_120_6" function="internal">
        <lane id=":3way_120_6_0" index="0" speed="8.00" length="10.13" shape="-0.96,596.80 0.60,599.40 3.35,601.05 7.20,601.60"/>
    </edge>
    <edge id=":3way_120_2" function="internal">
        <lane id=":3way_120_2_0" index="0" speed="6.51" length="9.03" shape="7.20,598.40 4.75,598.05 3.00,597.00 1.95,595.25 1.60,592.80"/>
    </edge>
    <edge id=":3way_120_3" function="internal">
        <lane id=":3way_120_3_0" index="0" speed="8.00" length="14.19" shape="7.20,598.40 3.35,598.95 0.60,600.60 -1.05,603.35 -1.60,607.20"/>
    </edge>
    <edge id=":3way_120_4" function="internal">
        <lane id=":3way_120_4_0" index="0" speed="6.51" length="9.03" shape="1.60,607.20 1.95,604.75 3.00,603.00 4.75,601.95 7.20,601.60"/>
    </edge>
    <edge id=":3way_120_5" function="internal">
        <lane id=":3way_120_5_0" index="0" speed="13.89" length="14.40" shape="1.60,607.20 1.60,592.80"/>
    </edge>
    <edge id=":3way_13_0" function="internal">
        <lane id=":3way_13_0_0" index="0" speed="6.51" length="9.03" shape="1298.40,1392.80 1298.05,1395.25 1297.00,1397.00 1295.25,1398.05 1292.80,1398.40"/>
    </edge>
    <edge id=":3way_13_1" function="internal">
        <lane id=":3way_13_1_0" index="0" speed="8.00" length="14.19" shape="1298.40,1392.80 1298.95,1396.65 1300.60,1399.40 1303.35,1401.05 1307.20,1401.60"/>
    </edge>
    <edge id=":3way_13_2" function="internal">
        <lane id=":3way_13_2_0" index="0" speed="6.51" length="9.03" shape="1307.20,1398.40 1304.75,1398.05 1303.00,1397.00 1301.95,1395.25 1301.60,1392.80"/>
    </edge>
    <edge id=":3way_13_3" function="internal">
        <lane id=":3way_13_3_0" index="0" speed="13.89" length="14.40" shape="1307.20,1398.40 1292.80,1398.40"/>
    </edge>
    <edge id=":3way_13_4" function="internal">
        <lane id=":3way_13_4_0" index="0" speed="13.89" length="14.40" shape="1292.80,1401.60 1307.20,1401.60"/>
    </edge>
    <edge id=":3way_13_5" function="internal">
        <lane id=":3way_13_5_0" index="0" speed="8.00" length="4.07" shape="1292.80,1401.60 1296.65,1401.05 1296.80,1400.96"/>
    </edge>
    <edge id=":3way_13_6" function="internal">
        <lane id=":3way_13_6_0" index="0" speed="8.00" length="10.13" shape="1296.80,1400.96 1299.40,1399.40 1301.05,1396.65 1301.60,1392.80"/>
    </edge>
    <edge id=":3way_134_0" function="internal">
        <lane id=":3way_134_0_0" index="0" speed="6.51" length="9.03" shape="1398.40,592.80 1398.05,595.25 1397.00,597.00 1395.25,598.05 1392.80,598.40"/>
    </edge>
    <edge id=":3way_134_1" function="internal">
        <lane id=":3way_134_1_0" index="0" speed="13.89" length="14.40" shape="1398.40,592.80 1398.40,607.20"/>
    </edge>
    <edge id=":3way_134_2" function="internal">
        <lane id=":3way_134_2_0" index="0" speed="13.89" length="14.40" shape="1401.60,607.20 1401.60,592.80"/>
    </edge>
    <edge id=":3way_134_3" function="internal">
        <lane id=":3way_134_3_0" index="0" speed="8.00" length="4.07" shape="1401.60,607.20 1401.05,603.35 1400.96,603.20"/>
    </edge>
    <edge id=":3way_134_6" function="internal">
        <lane id=":3way_134_6_0" index="0" speed="8.00" length="10.13" shape="1400.96,603.20 1399.40,600.60 1396.65,598.95 1392.80,598.40"/>
    </edge>
    <edge id=":3way_134_4" function="internal">
        <lane id=":3way_134_4_0" index="0" speed="6.51" length="9.03" shape="1392.80,601.60 1395.25,601.95 1397.00,603.00 1398.05,604.75 1398.40,607.20"/>
    </edge>
    <edge id=":3way_134_5" function="internal">
        <lane id=":3way_134_5_0" index="0" speed="8.00" length="14.19" shape="1392.80,601.60 1396.65,601.05 1399.40,599.40 1401.05,596.65 1401.60,592.80"/>
    </edge>
    <edge id=":3way_135_0" function="internal">
        <lane id=":3way_135_0_0" index="0" speed="13.89" length="14.40" shape="-1.60,492.80 -1.60,507.20"/>
    </edge>
    <edge id=":3way_135_1" function="internal">
        <lane id=":3way_135_1_0" index="0" speed="8.00" length="4.07" shape="-1.60,492.80 -1.05,496.65 -0.96,496.80"/>
    </edge>
    <edge id=":3way_135_6" function="internal">
        <lane id=":3way_135_6_0" index="0" speed="8.00" length="10.13" shape="-0.96,496.80 0.60,499.40 3.35,501.05 7.20,501.60"/>
    </edge>
    <edge id=":3way_135_2" function="internal">
        <lane id=":3way_135_2_0" index="0" speed="6.51" length="9.03" shape="7.20,498.40 4.75,498.05 3.00,497.00 1.95,495.25 1.60,492.80"/>
    </edge>
    <edge id=":3way_135_3" function="internal">
        <lane id=":3way_135_3_0" index="0" speed="8.00" length="14.19" shape="7.20,498.40 3.35,498.95 0.60,500.60 -1.05,503.35 -1.60,507.20"/>
    </edge>
    <edge id=":3way_135_4" function="internal">
        <lane id=":3way_135_4_0" index="0" speed="6.51" length="9.03" shape="1.60,507.20 1.95,504.75 3.00,503.00 4.75,501.95 7.20,501.60"/>
    </edge>
    <edge id=":3way_135_5" function="internal">
        <lane id=":3way_135_5_0" index="0" speed="13.89" length="14.40" shape="1.60,507.20 1.60,492.80"/>
    </edge>
    <edge id=":3way_149_0" function="internal">
        <lane id=":3way_149_0_0" index="0" speed="6.51" length="9.03" shape="1398.40,492.80 1398.05,495.25 1397.00,497.00 1395.25,498.05 1392.80,498.40"/>
    </edge>
    <edge id=":3way_149_1" function="internal">
        <lane id=":3way_149_1_0" index="0" speed="13.89" length="14.40" shape="1398.40,492.80 1398.40,507.20"/>
    </edge>
    <edge id=":3way_149_2" function="internal">
        <lane id=":3way_149_2_0" index="0" speed="13.89" length="14.40" shape="1401.60,507.20 1401.60,492.80"/>
    </edge>
    <edge id=":3way_149_3" function="internal">
        <lane id=":3way_149_3_0" index="0" speed="8.00" length="4.07" shape="1401.60,507.20 1401.05,503.35 1400.96,503.20"/>
    </edge>
    <edge id=":3way_149_6" function="internal">
        <lane id=":3way_149_6_0" index="0" speed="8.00" length="10.13" shape="1400.96,503.20 1399.40,500.60 1396.65,498.95 1392.80,498.40"/>
    </edge>
    <edge id=":3way_149_4" function="internal">
        <lane id=":3way_149_4_0" index="0" speed="6.51" length="9.03" shape="1392.80,501.60 1395.25,501.95 1397.00,503.00 1398.05,504.75 1398.40,507.20"/>
    </edge>
    <edge id=":3way_149_5" function="internal">
        <lane id=":3way_149_5_0" index="0" speed="8.00" length="14.19" shape="1392.80,501.60 1396.65,501.05 1399.40,499.40 1401.05,496.65 1401.60,492.80"/>
    </edge>
    <edge id=":3way_15_0" function="internal">
        <lane id=":3way_15_0_0" index="0" speed="13.89" length="14.40" shape="-1.60,1292.80 -1.60,1307.20"/>
    </edge>
    <edge id=":3way_15_1" function="internal">
        <lane id=":3way_15_1_0" index="0" speed="8.00" length="4.07" shape="-1.60,1292.80 -1.05,1296.65 -0.96,1296.80"/>
    </edge>
    <edge id=":3way_15_6" function="internal">
        <lane id=":3way_15_6_0" index="0" speed="8.00" length="10.13" shape="-0.96,1296.80 0.60,1299.40 3.35,1301.05 7.20,1301.60"/>
    </edge>
    <edge id=":3way_15_2" function="internal">
        <lane id=":3way_15_2_0" index="0" speed="6.51" length="9.03" shape="7.20,1298.40 4.75,1298.05 3.00,1297.00 1.95,1295.25 1.60,1292.80"/>
    </edge>
    <edge id=":3way_15_3" function="internal">
        <lane id=":3way_15_3_0" index="0" speed="8.00" length="14.19" shape="7.20,1298.40 3.35,1298.95 0.60,1300.60 -1.05,1303.35 -1.60,1307.20"/>
    </edge>
    <edge id=":3way_15_4" function="internal">
        <lane id=":3way_15_4_0" index="0" speed="6.51" length="9.03" shape="1.60,1307.20 1.95,1304.75 3.00,1303.00 4.75,1301.95 7.20,1301.60"/>
    </edge>
    <edge id=":3way_15_5" function="internal">
        <lane id=":3way_15_5_0" index="0" speed="13.89" length="14.40" shape="1.60,1307.20 1.60,1292.80"/>
    </edge>
    <edge id=":3way_150_0" function="internal">
        <lane id=":3way_150_0_0" index="0" speed="13.89" length="14.40" shape="-1.60,392.80 -1.60,407.20"/>
    </edge>
    <edge id=":3way_150_1" function="internal">
        <lane id=":3way_150_1_0" index="0" speed="8.00" length="4.07" shape="-1.60,392.80 -1.05,396.65 -0.96,396.80"/>
    </edge>
    <edge id=":3way_150_6" function="internal">
        <lane id=":3way_150_6_0" index="0" speed="8.00" length="10.13" shape="-0.96,396.80 0.60,399.40 3.35,401.05 7.20,401.60"/>
    </edge>
    <edge id=":3way_150_2" function="internal">
        <lane id=":3way_150_2_0" index="0" speed="6.51" length="9.03" shape="7.20,398.40 4.75,398.05 3.00,397.00 1.95,395.25 1.60,392.80"/>
    </edge>
    <edge id=":3way_150_3" function="internal">
        <lane id=":3way_150_3_0" index="0" speed="8.00" length="14.19" shape="7.20,398.40 3.35,398.95 0.60,400.60 -1.05,403.35 -1.60,407.20"/>
    </edge>
    <edge id=":3way_150_4" function="internal">
        <lane id=":3way_150_4_0" index="0" speed="6.51" length="9.03" shape="1.60,407.20 1.95,404.75 3.00,403.00 4.75,401.95 7.20,401.60"/>
    </edge>
    <edge id=":3way_150_5" function="internal">
        <lane id=":3way_150_5_0" index="0" speed="13.89" length="14.40" shape="1.60,407.20 1.60,392.80"/>
    </edge>
    <edge id=":3way_164_0" function="internal">
        <lane id=":3way_164_0_0" index="0" speed="6.51" length="9.03" shape="1398.40,392.80 1398.05,395.25 1397.00,397.00 1395.25,398.05 1392.80,398.40"/>
    </edge>
    <edge id=":3way_164_1" function="internal">
        <lane id=":3way_164_1_0" index="0" speed="13.89" length="14.40" shape="1398.40,392.80 1398.40,407.20"/>
    </edge>
    <edge id=":3way_164_2" function="internal">
        <lane id=":3way_164_2_0" index="0" speed="13.89" length="14.40" shape="1401.60,407.20 1401.60,392.80"/>
    </edge>
    <edge id=":3way_164_3" function="internal">
        <lane id=":3way_164_3_0" index="0" speed="8.00" length="4.07" shape="1401.60,407.20 1401.05,403.35 1400.96,403.20"/>
    </edge>
    <edge id=":3way_164_6" function="internal">
        <lane id=":3way_164_6_0" index="0" speed="8.00" length="10.13" shape="1400.96,403.20 1399.40,400.60 1396.65,398.95 1392.80,398.40"/>
    </edge>
    <edge id=":3way_164_4" function="internal">
        <lane id=":3way_164_4_0" index="0" speed="6.51" length="9.03" shape="1392.80,401.60 1395.25,401.95 1397.00,403.00 1398.05,404.75 1398.40,407.20"/>
    </edge>
    <edge id=":3way_164_5" function="internal">
        <lane id=":3way_164_5_0" index="0" speed="8.00" length="14.19" shape="1392.80,401.60 1396.65,401.05 1399.40,399.40 1401.05,396.65 1401.60,392.80"/>
    </edge>
    <edge id=":3way_165_0" function="internal">
        <lane id=":3way_165_0_0" index="0" speed="13.89" length="14.40" shape="-1.60,292.80 -1.60,307.20"/>
    </edge>
    <edge id=":3way_165_1" function="internal">
        <lane id=":3way_165_1_0" index="0" speed="8.00" length="4.07" shape="-1.60,292.80 -1.05,296.65 -0.96,296.80"/>
    </edge>
    <edge id=":3way_165_6" function="internal">
        <lane id=":3way_165_6_0" index="0" speed="8.00" length="10.13" shape="-0.96,296.80 0.60,299.40 3.35,301.05 7.20,301.60"/>
    </edge>
    <edge id=":3way_165_2" function="internal">
        <lane id=":3way_165_2_0" index="0" speed="6.51" length="9.03" shape="7.20,298.40 4.75,298.05 3.00,297.00 1.95,295.25 1.60,292.80"/>
    </edge>
    <edge id=":3way_165_3" function="internal">
        <lane id=":3way_165_3_0" index="0" speed="8.00" length="14.19" shape="7.20,298.40 3.35,298.95 0.60,300.60 -1.05,303.35 -1.60,307.20"/>
    </edge>
    <edge id=":3way_165_4" function="internal">
        <lane id=":3way_165_4_0" index="0" speed="6.51" length="9.03" shape="1.60,307.20 1.95,304.75 3.00,303.00 4.75,301.95 7.20,301.60"/>
    </edge>
    <edge id=":3way_165_5" function="internal">
        <lane id=":3way_165_5_0" index="0" speed="13.89" length="14.40" shape="1.60,307.20 1.60,292.80"/>
    </edge>
    <edge id=":3way_179_0" function="internal">
        <lane id=":3way_179_0_0" index="0" speed="6.51" length="9.03" shape="1398.40,292.80 1398.05,295.25 1397.00,297.00 1395.25,298.05 1392.80,298.40"/>
    </edge>
    <edge id=":3way_179_1" function="internal">
        <lane id=":3way_179_1_0" index="0" speed="13.89" length="14.40" shape="1398.40,292.80 1398.40,307.20"/>
    </edge>
    <edge id=":3way_179_2" function="internal">
        <lane id=":3way_179_2_0" index="0" speed="13.89" length="14.40" shape="1401.60,307.20 1401.60,292.80"/>
    </edge>
    <edge id=":3way_179_3" function="internal">
        <lane id=":3way_179_3_0" index="0" speed="8.00" length="4.07" shape="1401.60,307.20 1401.05,303.35 1400.96,303.20"/>
    </edge>
    <edge id=":3way_179_6" function="internal">
        <lane id=":3way_179_6_0" index="0" speed="8.00" length="10.13" shape="1400.96,303.20 1399.40,300.60 1396.65,298.95 1392.80,298.40"/>
    </edge>
    <edge id=":3way_179_4" function="internal">
        <lane id=":3way_179_4_0" index="0" speed="6.51" length="9.03" shape="1392.80,301.60 1395.25,301.95 1397.00,303.00 1398.05,304.75 1398.40,307.20"/>
    </edge>
    <edge id=":3way_179_5" function="internal">
        <lane id=":3way_179_5_0" index="0" speed="8.00" length="14.19" shape="1392.80,301.60 1396.65,301.05 1399.40,299.40 1401.05,296.65 1401.60,292.80"/>
    </edge>
    <edge id=":3way_180_0" function="internal">
        <lane id=":3way_180_0_0" index="0" speed="13.89" length="14.40" shape="-1.60,192.80 -1.60,207.20"/>
    </edge>
    <edge id=":3way_180_1" function="internal">
        <lane id=":3way_180_1_0" index="0" speed="8.00" length="4.07" shape="-1.60,192.80 -1.05,196.65 -0.96,196.80"/>
    </edge>
    <edge id=":3way_180_6" function="internal">
        <lane id=":3way_180_6_0" index="0" speed="8.00" length="10.13" shape="-0.96,196.80 0.60,199.40 3.35,201.05 7.20,201.60"/>
    </edge>
    <edge id=":3way_180_2" function="internal">
        <lane id=":3way_180_2_0" index="0" speed="6.51" length="9.03" shape="7.20,198.40 4.75,198.05 3.00,197.00 1.95,195.25 1.60,192.80"/>
    </edge>
    <edge id=":3way_180_3" function="internal">
        <lane id=":3way_180_3_0" index="0" speed="8.00" length="14.19" shape="7.20,198.40 3.35,198.95 0.60,200.60 -1.05,203.35 -1.60,207.20"/>
    </edge>
    <edge id=":3way_180_4" function="internal">
        <lane id=":3way_180_4_0" index="0" speed="6.51" length="9.03" shape="1.60,207.20 1.95,204.75 3.00,203.00 4.75,201.95 7.20,201.60"/>
    </edge>
    <edge id=":3way_180_5" function="internal">
        <lane id=":3way_180_5_0" index="0" speed="13.89" length="14.40" shape="1.60,207.20 1.60,192.80"/>
    </edge>
    <edge id=":3way_194_0" function="internal">
        <lane id=":3way_194_0_0" index="0" speed="6.51" length="9.03" shape="1398.40,192.80 1398.05,195.25 1397.00,197.00 1395.25,198.05 1392.80,198.40"/>
    </edge>
    <edge id=":3way_194_1" function="internal">
        <lane id=":3way_194_1_0" index="0" speed="13.89" length="14.40" shape="1398.40,192.80 1398.40,207.20"/>
    </edge>
    <edge id=":3way_194_2" function="internal">
        <lane id=":3way_194_2_0" index="0" speed="13.89" length="14.40" shape="1401.60,207.20 1401.60,192.80"/>
    </edge>
    <edge id=":3way_194_3" function="internal">
        <lane id=":3way_194_3_0" index="0" speed="8.00" length="4.07" shape="1401.60,207.20 1401.05,203.35 1400.96,203.20"/>
    </edge>
    <edge id=":3way_194_6" function="internal">
        <lane id=":3way_194_6_0" index="0" speed="8.00" length="10.13" shape="1400.96,203.20 1399.40,200.60 1396.65,198.95 1392.80,198.40"/>
    </edge>
    <edge id=":3way_194_4" function="internal">
        <lane id=":3way_194_4_0" index="0" speed="6.51" length="9.03" shape="1392.80,201.60 1395.25,201.95 1397.00,203.00 1398.05,204.75 1398.40,207.20"/>
    </edge>
    <edge id=":3way_194_5" function="internal">
        <lane id=":3way_194_5_0" index="0" speed="8.00" length="14.19" shape="1392.80,201.60 1396.65,201.05 1399.40,199.40 1401.05,196.65 1401.60,192.80"/>
    </edge>
    <edge id=":3way_195_0" function="internal">
        <lane id=":3way_195_0_0" index="0" speed="13.89" length="14.40" shape="-1.60,92.80 -1.60,107.20"/>
    </edge>
    <edge id=":3way_195_1" function="internal">
        <lane id=":3way_195_1_0" index="0" speed="8.00" length="4.07" shape="-1.60,92.80 -1.05,96.65 -0.96,96.80"/>
    </edge>
    <edge id=":3way_195_6" function="internal">
        <lane id=":3way_195_6_0" index="0" speed="8.00" length="10.13" shape="-0.96,96.80 0.60,99.40 3.35,101.05 7.20,101.60"/>
    </edge>
    <edge id=":3way_195_2" function="internal">
        <lane id=":3way_195_2_0" index="0" speed="6.51" length="9.03" shape="7.20,98.40 4.75,98.05 3.00,97.00 1.95,95.25 1.60,92.80"/>
    </edge>
    <edge id=":3way_195_3" function="internal">
        <lane id=":3way_195_3_0" index="0" speed="8.00" length="14.19" shape="7.20,98.40 3.35,98.95 0.60,100.60 -1.05,103.35 -1.60,107.20"/>
    </edge>
    <edge id=":3way_195_4" function="internal">
        <lane id=":3way_195_4_0" index="0" speed="6.51" length="9.03" shape="1.60,107.20 1.95,104.75 3.00,103.00 4.75,101.95 7.20,101.60"/>
    </edge>
    <edge id=":3way_195_5" function="internal">
        <lane id=":3way_195_5_0" index="0" speed="13.89" length="14.40" shape="1.60,107.20 1.60,92.80"/>
    </edge>
    <edge id=":3way_2_0" function="internal">
        <lane id=":3way_2_0_0" index="0" speed="6.51" length="9.03" shape="198.40,1392.80 198.05,1395.25 197.00,1397.00 195.25,1398.05 192.80,1398.40"/>
    </edge>
    <edge id=":3way_2_1" function="internal">
        <lane id=":3way_2_1_0" index="0" speed="8.00" length="14.19" shape="198.40,1392.80 198.95,1396.65 200.60,1399.40 203.35,1401.05 207.20,1401.60"/>
    </edge>
    <edge id=":3way_2_2" function="internal">
        <lane id=":3way_2_2_0" index="0" speed="6.51" length="9.03" shape="207.20,1398.40 204.75,1398.05 203.00,1397.00 201.95,1395.25 201.60,1392.80"/>
    </edge>
    <edge id=":3way_2_3" function="internal">
        <lane id=":3way_2_3_0" index="0" speed="13.89" length="14.40" shape="207.20,1398.40 192.80,1398.40"/>
    </edge>
    <edge id=":3way_2_4" function="internal">
        <lane id=":3way_2_4_0" index="0" speed="13.89" length="14.40" shape="192.80,1401.60 207.20,1401.60"/>
    </edge>
    <edge id=":3way_2_5" function="internal">
        <lane id=":3way_2_5_0" index="0" speed="8.00" length="4.07" shape="192.80,1401.60 196.65,1401.05 196.80,1400.96"/>
    </edge>
    <edge id=":3way_2_6" function="internal">
        <lane id=":3way_2_6_0" index="0" speed="8.00" length="10.13" shape="196.80,1400.96 199.40,1399.40 201.05,1396.65 201.60,1392.80"/>
    </edge>
    <edge id=":3way_209_0" function="internal">
        <lane id=":3way_209_0_0" index="0" speed="6.51" length="9.03" shape="1398.40,92.80 1398.05,95.25 1397.00,97.00 1395.25,98.05 1392.80,98.40"/>
    </edge>
    <edge id=":3way_209_1" function="internal">
        <lane id=":3way_209_1_0" index="0" speed="13.89" length="14.40" shape="1398.40,92.80 1398.40,107.20"/>
    </edge>
    <edge id=":3way_209_2" function="internal">