<routes xmlns:xsi="http://www.w3.org/2001/XMLSchema-instance" xsi:noNamespaceSchemaLocation="http://sumo.dlr.de/xsd/routes_file.xsd">
<trip id="0" depart="0.0" fromJunction="4way_E07" toJunction="4way_D04"/>
<trip id="1" depart="0.78" fromJunction="4way_D04" toJunction="4way_D08"/>
<trip id="2" depart="1.56" fromJunction="3way_E02" toJunction="4way_B09"/>
<trip id="3" depart="2.34" fromJunction="4way_G02" toJunction="3way_C03"/>
<trip id="4" depart="3.12" fromJunction="4way_B06" toJunction="4way_G07"/>
<trip id="5" depart="3.9000000000000004" fromJunction="4way_D03" toJunction="4way_F04"/>
<trip id="6" depart="4.68" fromJunction="4way_G04" toJunction="3way_D05"/>
<trip id="7" depart="5.46" fromJunction="3way_B10" toJunction="3way_A09"/>
<trip id="8" depart="6.24" fromJunction="4way_F06" toJunction="3way_A05"/>
<trip id="9" depart="7.0200000000000005" fromJunction="4way_F09" toJunction="4way_F03"/>
<trip id="10" depart="7.800000000000001" fromJunction="4way_F04" toJunction="4way_G08"/>
<trip id="11" depart="8.58" fromJunction="4way_F03" toJunction="3way_C06"/>
<trip id="12" depart="9.36" fromJunction="3way_E02" toJunction="3way_D10"/>
<trip id="13" depart="10.14" fromJunction="4way_G06" toJunction="3way_F10"/>
<trip id="14" depart="10.92" fromJunction="4way_B08" toJunction="3way_D01"/>
<trip id="15" depart="11.700000000000001" fromJunction="4way_F02" toJunction="3way_H02"/>
<trip id="16" depart="12.48" fromJunction="3way_D05" toJunction="3way_C04"/>
<trip id="17" depart="13.26" fromJunction="4way_D09" toJunction="3way_A05"/>
<trip id="18" depart="14.040000000000001" fromJunction="4way_E05" toJunction="4way_G05"/>
<trip id="19" depart="14.82" fromJunction="3way_C03" toJunction="4way_B04"/>
<trip id="20" depart="15.600000000000001" fromJunction="3way_A08" toJunction="4way_E06"/>
<trip id="21" depart="16.38" fromJunction="3way_E10" toJunction="3way_H06"/>
<trip id="22" depart="17.16" fromJunction="3way_B05" toJunction="3way_F00"/>
<trip id="23" depart="17.94" fromJunction="3way_C03" toJunction="4way_D06"/>
<trip id="24" depart="18.72" fromJunction="3way_C10" toJunction="4way_G09"/>
<trip id="25" depart="19.5" fromJunction="3way_G10" toJunction="3way_H06"/>
<trip id="26" depart="20.28" fromJunction="3way_H03" toJunction="4way_E03"/>
<trip id="27" depart="21.060000000000002" fromJunction="3way_H04" toJunction="3way_C06"/>
<trip id="28" depart="21.84" fromJunction="3way_C10" toJunction="3way_G10"/>
<trip id="29" depart="22.62" fromJunction="3way_E10" toJunction="4way_E03"/>
<trip id="30" depart="23.400000000000002" fromJunction="3way_B05" toJunction="3way_H07"/>
<trip id="31" depart="24.18" fromJunction="3way_B10" toJunction="4way_F06"/>
<trip id="32" depart="24.96" fromJunction="3way_B10" toJunction="4way_F07"/>
<trip id="33" depart="25.740000000000002" fromJunction="3way_C06" toJunction="4way_G08"/>
<trip id="34" depart="26.52" fromJunction="4way_D08" toJunction="4way_G08"/>
<trip id="35" depart="27.3" fromJunction="3way_A06" toJunction="4way_E09"/>
<trip id="36" depart="28.080000000000002" fromJunction="3way_D10" toJunction="3way_H01"/>
<trip id="37" depart="28.86" fromJunction="3way_D10" toJunction="3way_G00"/>
<trip id="38" depart="29.64" fromJunction="4way_B08" toJunction="3way_F00"/>
<trip id="39" depart="30.42" fromJunction="4way_E05" toJunction="3way_A08"/>
<trip id="40" depart="31.200000000000003" fromJunction="3way_H02" toJunction="3way_D05"/>
<trip id="41" depart="31.98" fromJunction="3way_B10" toJunction="3way_D01"/>
<trip id="42" depart="32.76" fromJunction="4way_G04" toJunction="4way_D06"/>
<trip id="43" depart="33.54" fromJunction="4way_E04" toJunction="3way_F00"/>
<trip id="44" depart="34.32" fromJunction="4way_E07" toJunction="3way_E10"/>
<trip id="45" depart="35.1" fromJunction="3way_H08" toJunction="3way_H01"/>
<trip id="46" depart="35.88" fromJunction="3way_A05" toJunction="4way_D07"/>
<trip id="47" depart="36.660000000000004" fromJunction="3way_A04" toJunction="4way_F06"/>
<trip id="48" depart="37.44" fromJunction="3way_H02" toJunction="4way_E04"/>
<trip id="49" depart="38.22" fromJunction="4way_G07" toJunction="4way_E08"/>
<trip id="50" depart="39.0" fromJunction="4way_D06" toJunction="3way_H04"/>
<trip id="51" depart="39.78" fromJunction="4way_D06" toJunction="4way_D07"/>
<trip id="52" depart="40.56" fromJunction="4way_G06" toJunction="3way_H05"/>
<trip id="53" depart="41.34" fromJunction="4way_F07" toJunction="3way_C04"/>
<trip id="54" depart="42.120000000000005" fromJunction="3way_G00" toJunction="4way_E06"/>
<trip id="55" depart="42.9" fromJunction="4way_B07" toJunction="4way_F05"/>
<trip id="56" depart="43.68" fromJunction="4way_D06" toJunction="4way_G01"/>
<trip id="57" depart="44.46" fromJunction="4way_E05" toJunction="4way_G01"/>
<trip id="58" depart="45.24" fromJunction="4way_C09" toJunction="4way_E08"/>
<trip id="59" depart="46.02" fromJunction="3way_E02" toJunction="4way_G06"/>
<trip id="60" depart="46.800000000000004" fromJunction="4way_D08" toJunction="4way_B09"/>
<trip id="61" depart="47.58" fromJunction="3way_G00" toJunction="3way_A05"/>
<trip id="62" depart="48.36" fromJunction="3way_H01" toJunction="4way_E03"/>
<trip id="63" depart="49.14" fromJunction="4way_B09" toJunction="4way_D09"/>
<trip id="64" depart="49.92" fromJunction="3way_G00" toJunction="3way_E10"/>
<trip id="65" depart="50.7" fromJunction="4way_D07" toJunction="4way_D06"/>
<trip id="66" depart="51.480000000000004" fromJunction="4way_E03" toJunction="4way_D06"/>
<trip id="67" depart="52.260000000000005" fromJunction="3way_C03" toJunction="3way_E02"/>
<trip id="68" depart="53.04" fromJunction="3way_B05" toJunction="4way_G02"/>
<trip id="69" depart="53.82" fromJunction="4way_G02" toJunction="3way_C03"/>
<trip id="70" depart="54.6" fromJunction="4way_E06" toJunction="4way_F05"/>
<trip id="71" depart="55.38" fromJunction="4way_G04" toJunction="3way_C10"/>
<trip id="72" depart="56.160000000000004" fromJunction="4way_G09" toJunction="4way_E07"/>
<trip id="73" depart="56.940000000000005" fromJunction="4way_F09" toJunction="3way_F10"/>
<trip id="74" depart="57.72" fromJunction="4way_D09" toJunction="3way_G10"/>
<trip id="75" depart="58.5" fromJunction="4way_F08" toJunction="3way_D10"/>
<trip id="76" depart="59.28" fromJunction="3way_D05" toJunction="4way_F05"/>
<trip id="77" depart="60.06" fromJunction="3way_A08" toJunction="4way_B08"/>
<trip id="78" depart="60.84" fromJunction="3way_C04" toJunction="4way_E06"/>
<trip id="79" depart="61.620000000000005" fromJunction="4way_F09" toJunction="4way_E07"/>
<trip id="80" depart="62.400000000000006" fromJunction="4way_F08" toJunction="4way_G08"/>
<trip id="81" depart="63.18" fromJunction="4way_B04" toJunction="3way_A04"/>
<trip id="82" depart="63.96" fromJunction="3way_H09" toJunction="4way_E08"/>
<trip id="83" depart="64.74000000000001" fromJunction="3way_A07" toJunction="3way_D01"/>
<trip id="84" depart="65.52" fromJunction="3way_A05" toJunction="3way_H07"/>
<trip id="85" depart="66.3" fromJunction="3way_H05" toJunction="4way_F04"/>
<trip id="86" depart="67.08" fromJunction="4way_G04" toJunction="3way_B03"/>
<trip id="87" depart="67.86" fromJunction="3way_A06" toJunction="4way_E06"/>
<trip id="88" depart="68.64" fromJunction="4way_D09" toJunction="3way_G10"/>
<trip id="89" depart="69.42" fromJunction="3way_H04" toJunction="4way_D06"/>
<trip id="90" depart="70.2" fromJunction="4way_D09" toJunction="4way_G05"/>
<trip id="91" depart="70.98" fromJunction="4way_D07" toJunction="4way_D03"/>
<trip id="92" depart="71.76" fromJunction="3way_F00" toJunction="4way_E08"/>
<trip id="93" depart="72.54" fromJunction="3way_H06" toJunction="4way_B07"/>
<trip id="94" depart="73.32000000000001" fromJunction="4way_G05" toJunction="3way_H08"/>
<trip id="95" depart="74.10000000000001" fromJunction="4way_C08" toJunction="4way_E09"/>
<trip id="96" depart="74.88" fromJunction="3way_H03" toJunction="3way_H05"/>
<trip id="97" depart="75.66" fromJunction="3way_C03" toJunction="3way_A08"/>
<trip id="98" depart="76.44" fromJunction="4way_E06" toJunction="3way_F00"/>
<trip id="99" depart="77.22" fromJunction="3way_H09" toJunction="4way_B06"/>
<trip id="100" depart="78.0" fromJunction="3way_A08" toJunction="3way_A05"/>
<trip id="101" depart="78.78" fromJunction="3way_C04" toJunction="4way_E04"/>
<trip id="102" depart="79.56" fromJunction="4way_G02" toJunction="4way_D03"/>
<trip id="103" depart="80.34" fromJunction="3way_H06" toJunction="4way_G09"/>
<trip id="104" depart="81.12" fromJunction="3way_H03" toJunction="4way_E03"/>
<trip id="105" depart="81.9" fromJunction="4way_F01" toJunction="3way_A05"/>
<trip id="106" depart="82.68" fromJunction="4way_B06" toJunction="3way_E00"/>
<trip id="107" depart="83.46000000000001" fromJunction="4way_F06" toJunction="4way_D07"/>
<trip id="108" depart="84.24000000000001" fromJunction="4way_F09" toJunction="4way_E01"/>
<trip id="109" depart="85.02" fromJunction="4way_F04" toJunction="3way_H02"/>
<trip id="110" depart="85.8" fromJunction="4way_G06" toJunction="3way_H08"/>
<trip id="111" depart="86.58" fromJunction="3way_H06" toJunction="4way_E05"/>
<trip id="112" depart="87.36" fromJunction="4way_E08" toJunction="4way_G06"/>
<trip id="113" depart="88.14" fromJunction="3way_H06" toJunction="3way_H03"/>
<trip id="114" depart="88.92" fromJunction="3way_A05" toJunction="3way_D01"/>
<trip id="115" depart="89.7" fromJunction="4way_B09" toJunction="3way_H07"/>
<trip id="116" depart="90.48" fromJunction="3way_C06" toJunction="3way_B05"/>
<trip id="117" depart="91.26" fromJunction="4way_D07" toJunction="3way_H02"/>
<trip id="118" depart="92.04" fromJunction="3way_D10" toJunction="4way_F09"/>
<trip id="119" depart="92.82000000000001" fromJunction="3way_E10" toJunction="3way_D01"/>
<trip id="120" depart="93.60000000000001" fromJunction="4way_B07" toJunction="4way_E07"/>
<trip id="121" depart="94.38000000000001" fromJunction="3way_H08" toJunction="3way_D05"/>
<trip id="122" depart="95.16" fromJunction="4way_C08" toJunction="3way_F10"/>
<trip id="123" depart="95.94" fromJunction="4way_G05" toJunction="4way_B04"/>
<trip id="124" depart="96.72" fromJunction="4way_E09" toJunction="4way_F02"/>
<trip id="125" depart="97.5" fromJunction="3way_B10" toJunction="4way_G03"/>
<trip id="126" depart="98.28" fromJunction="4way_D07" toJunction="4way_D04"/>
<trip id="127" depart="99.06" fromJunction="3way_G00" toJunction="4way_G07"/>
<trip id="128" depart="99.84" fromJunction="3way_C10" toJunction="3way_H04"/>
<trip id="129" depart="100.62" fromJunction="4way_G04" toJunction="3way_A05"/>
<trip id="130" depart="101.4" fromJunction="4way_F03" toJunction="4way_E04"/>
<trip id="131" depart="102.18" fromJunction="4way_D07" toJunction="3way_H01"/>
<trip id="132" depart="102.96000000000001" fromJunction="4way_C07" toJunction="3way_A08"/>
<trip id="133" depart="103.74000000000001" fromJunction="4way_G01" toJunction="4way_G08"/>
<trip id="134" depart="104.52000000000001" fromJunction="4way_G07" toJunction="3way_B03"/>
<trip id="135" depart="105.3" fromJunction="4way_G06" toJunction="3way_H05"/>
<trip id="136" depart="106.08" fromJunction="4way_F04" toJunction="4way_G05"/>
<trip id="137" depart="106.86" fromJunction="4way_F09" toJunction="4way_E01"/>
<trip id="138" depart="107.64" fromJunction="4way_F08" toJunction="3way_G00"/>
<trip id="139" depart="108.42" fromJunction="3way_A04" toJunction="4way_D09"/>
<trip id="140" depart="109.2" fromJunction="3way_F10" toJunction="4way_B04"/>
<trip id="141" depart="109.98" fromJunction="4way_C07" toJunction="4way_G08"/>
<trip id="142" depart="110.76" fromJunction="3way_E02" toJunction="4way_C08"/>
<trip id="143" depart="111.54" fromJunction="3way_E10" toJunction="3way_B05"/>
<trip id="144" depart="112.32000000000001" fromJunction="3way_H08" toJunction="4way_F06"/>
<trip id="145" depart="113.10000000000001" fromJunction="3way_H05" toJunction="4way_C09"/>
<trip id="146" depart="113.88000000000001" fromJunction="4way_F09" toJunction="3way_C10"/>
<trip id="147" depart="114.66000000000001" fromJunction="4way_G07" toJunction="4way_G08"/>
<trip id="148" depart="115.44" fromJunction="4way_F02" toJunction="4way_G03"/>
<trip id="149" depart="116.22" fromJunction="3way_A09" toJunction="3way_E00"/>
<trip id="150" depart="117.0" fromJunction="3way_H05" toJunction="4way_B08"/>
<trip id="151" depart="117.78" fromJunction="3way_A07" toJunction="3way_E10"/>
<trip id="152" depart="118.56" fromJunction="3way_A04" toJunction="4way_E08"/>
<trip id="153" depart="119.34" fromJunction="3way_F10" toJunction="4way_F02"/>
<trip id="154" depart="120.12" fromJunction="3way_B10" toJunction="3way_A09"/>
<trip id="155" depart="120.9" fromJunction="3way_H04" toJunction="4way_E04"/>
<trip id="156" depart="121.68" fromJunction="3way_D05" toJunction="4way_B09"/>
<trip id="157" depart="122.46000000000001" fromJunction="4way_E08" toJunction="4way_F08"/>
<trip id="158" depart="123.24000000000001" fromJunction="3way_E10" toJunction="3way_H02"/>
<trip id="159" depart="124.02000000000001" fromJunction="3way_G00" toJunction="3way_A07"/>
<trip id="160" depart="124.80000000000001" fromJunction="3way_C04" toJunction="3way_H03"/>
<trip id="161" depart="125.58" fromJunction="4way_E06" toJunction="4way_E05"/>
<trip id="162" depart="126.36" fromJunction="4way_B06" toJunction="3way_H01"/>
<trip id="163" depart="127.14" fromJunction="4way_F03" toJunction="3way_H08"/>
<trip id="164" depart="127.92" fromJunction="4way_E06" toJunction="3way_A08"/>
<trip id="165" depart="128.70000000000002" fromJunction="4way_F02" toJunction="4way_F03"/>
<trip id="166" depart="129.48000000000002" fromJunction="3way_B05" toJunction="3way_H03"/>
<trip id="167" depart="130.26" fromJunction="3way_H02" toJunction="4way_D07"/>
<trip id="168" depart="131.04" fromJunction="3way_H07" toJunction="3way_B05"/>
<trip id="169" depart="131.82" fromJunction="3way_A07" toJunction="3way_C06"/>
<trip id="170" depart="132.6" fromJunction="3way_A09" toJunction="4way_F04"/>
<trip id="171" depart="133.38" fromJunction="3way_F00" toJunction="3way_D01"/>
<trip id="172" depart="134.16" fromJunction="4way_G07" toJunction="4way_D06"/>
<trip id="173" depart="134.94" fromJunction="3way_A06" toJunction="3way_E02"/>
<trip id="174" depart="135.72" fromJunction="4way_C09" toJunction="4way_B09"/>
<trip id="175" depart="136.5" fromJunction="4way_E05" toJunction="4way_D03"/>
<trip id="176" depart="137.28" fromJunction="3way_E10" toJunction="3way_H02"/>
<trip id="177" depart="138.06" fromJunction="4way_G06" toJunction="4way_B07"/>
<trip id="178" depart="138.84" fromJunction="4way_G03" toJunction="3way_H08"/>
<trip id="179" depart="139.62" fromJunction="3way_C04" toJunction="4way_D04"/>
<trip id="180" depart="140.4" fromJunction="3way_C06" toJunction="4way_G01"/>
<trip id="181" depart="141.18" fromJunction="4way_B07" toJunction="4way_E08"/>
<trip id="182" depart="141.96" fromJunction="4way_E05" toJunction="4way_G03"/>
<trip id="183" depart="142.74" fromJunction="3way_E00" toJunction="4way_E06"/>
<trip id="184" depart="143.52" fromJunction="4way_E01" toJunction="4way_F01"/>
<trip id="185" depart="144.3" fromJunction="3way_G10" toJunction="3way_H04"/>
<trip id="186" depart="145.08" fromJunction="4way_G07" toJunction="4way_F04"/>
<trip id="187" depart="145.86" fromJunction="4way_D07" toJunction="3way_C04"/>
<trip id="188" depart="146.64000000000001" fromJunction="3way_C04" toJunction="4way_F08"/>
<trip id="189" depart="147.42000000000002" fromJunction="4way_D06" toJunction="4way_G06"/>
<trip id="190" depart="148.20000000000002" fromJunction="4way_G03" toJunction="4way_F06"/>
<trip id="191" depart="148.98000000000002" fromJunction="3way_G10" toJunction="4way_F05"/>
<trip id="192" depart="149.76" fromJunction="4way_B07" toJunction="4way_E01"/>
<trip id="193" depart="150.54" fromJunction="4way_B09" toJunction="3way_A08"/>
<trip id="194" depart="151.32" fromJunction="4way_F08" toJunction="3way_H03"/>
<trip id="195" depart="152.1" fromJunction="4way_G07" toJunction="3way_A06"/>
<trip id="196" depart="152.88" fromJunction="3way_H08" toJunction="3way_A05"/>
<trip id="197" depart="153.66" fromJunction="4way_G04" toJunction="4way_B07"/>
<trip id="198" depart="154.44" fromJunction="4way_G06" toJunction="3way_C10"/>
<trip id="199" depart="155.22" fromJunction="3way_C04" toJunction="4way_F09"/>
<trip id="200" depart="156.0" fromJunction="3way_H05" toJunction="3way_E00"/>
<trip id="201" depart="156.78" fromJunction="3way_A06" toJunction="4way_D09"/>
<trip id="202" depart="157.56" fromJunction="4way_B09" toJunction="3way_A05"/>
<trip id="203" depart="158.34" fromJunction="3way_H03" toJunction="3way_A08"/>
<trip id="204" depart="159.12" fromJunction="3way_H03" toJunction="3way_H06"/>
<trip id="205" depart="159.9" fromJunction="3way_A04" toJunction="3way_E10"/>
<trip id="206" depart="160.68" fromJunction="4way_D09" toJunction="3way_D10"/>
<trip id="207" depart="161.46" fromJunction="4way_G09" toJunction="4way_G08"/>
<trip id="208" depart="162.24" fromJunction="3way_G10" toJunction="4way_B08"/>
<trip id="209" depart="163.02" fromJunction="4way_C08" toJunction="4way_E01"/>
<trip id="210" depart="163.8" fromJunction="3way_A08" toJunction="4way_G09"/>
<trip id="211" depart="164.58" fromJunction="3way_H01" toJunction="4way_F03"/>
<trip id="212" depart="165.36" fromJunction="4way_E03" toJunction="3way_H04"/>
<trip id="213" depart="166.14000000000001" fromJunction="4way_E03" toJunction="3way_H04"/>
<trip id="214" depart="166.92000000000002" fromJunction="4way_B09" toJunction="3way_D01"/>
<trip id="215" depart="167.70000000000002" fromJunction="3way_H01" toJunction="4way_D04"/>
<trip id="216" depart="168.48000000000002" fromJunction="4way_B08" toJunction="4way_E06"/>
<trip id="217" depart="169.26000000000002" fromJunction="4way_F06" toJunction="4way_B04"/>
<trip id="218" depart="170.04" fromJunction="3way_A07" toJunction="4way_G04"/>
<trip id="219" depart="170.82" fromJunction="4way_B04" toJunction="3way_H05"/>
<trip id="220" depart="171.6" fromJunction="4way_G08" toJunction="4way_F05"/>
<trip id="221" depart="172.38" fromJunction="4way_G03" toJunction="4way_G07"/>
<trip id="222" depart="173.16" fromJunction="4way_G09" toJunction="3way_G00"/>
<trip id="223" depart="173.94" fromJunction="3way_C10" toJunction="3way_H04"/>
<trip id="224" depart="174.72" fromJunction="3way_H05" toJunction="4way_G06"/>
<trip id="225" depart="175.5" fromJunction="3way_A08" toJunction="4way_E05"/>
<trip id="226" depart="176.28" fromJunction="4way_G01" toJunction="4way_E08"/>
<trip id="227" depart="177.06" fromJunction="4way_B06" toJunction="3way_H02"/>
<trip id="228" depart="177.84" fromJunction="4way_E09" toJunction="3way_B05"/>
<trip id="229" depart="178.62" fromJunction="3way_H09" toJunction="3way_H04"/>
<trip id="230" depart="179.4" fromJunction="3way_G00" toJunction="3way_C04"/>
<trip id="231" depart="180.18" fromJunction="3way_H04" toJunction="4way_F07"/>
<trip id="232" depart="180.96" fromJunction="4way_G05" toJunction="4way_C09"/>
<trip id="233" depart="181.74" fromJunction="4way_F09" toJunction="4way_E01"/>
<trip id="234" depart="182.52" fromJunction="4way_F01" toJunction="4way_G05"/>
<trip id="235" depart="183.3" fromJunction="4way_G07" toJunction="4way_E06"/>
<trip id="236" depart="184.08" fromJunction="3way_C04" toJunction="4way_G09"/>
<trip id="237" depart="184.86" fromJunction="3way_G00" toJunction="3way_A09"/>
<trip id="238" depart="185.64000000000001" fromJunction="4way_B09" toJunction="3way_F10"/>
<trip id="239" depart="186.42000000000002" fromJunction="4way_D08" toJunction="3way_E10"/>
<trip id="240" depart="187.20000000000002" fromJunction="4way_G02" toJunction="4way_B06"/>
<trip id="241" depart="187.98000000000002" fromJunction="4way_D04" toJunction="4way_G07"/>
<trip id="242" depart="188.76000000000002" fromJunction="4way_D07" toJunction="3way_H02"/>
<trip id="243" depart="189.54000000000002" fromJunction="4way_B08" toJunction="4way_G02"/>
<trip id="244" depart="190.32" fromJunction="3way_H02" toJunction="4way_D04"/>
<trip id="245" depart="191.1" fromJunction="4way_B07" toJunction="3way_C04"/>
<trip id="246" depart="191.88" fromJunction="4way_C09" toJunction="3way_H04"/>
<trip id="247" depart="192.66" fromJunction="3way_B05" toJunction="3way_F00"/>
<trip id="248" depart="193.44" fromJunction="4way_F01" toJunction="3way_D01"/>
<trip id="249" depart="194.22" fromJunction="4way_G04" toJunction="3way_B03"/>
<trip id="250" depart="195.0" fromJunction="3way_A07" toJunction="4way_F09"/>
<trip id="251" depart="195.78" fromJunction="3way_C04" toJunction="3way_H03"/>
<trip id="252" depart="196.56" fromJunction="4way_B04" toJunction="3way_C10"/>
<trip id="253" depart="197.34" fromJunction="4way_E04" toJunction="4way_E09"/>
<trip id="254" depart="198.12" fromJunction="4way_E07" toJunction="4way_D09"/>
<trip id="255" depart="198.9" fromJunction="3way_B03" toJunction="3way_H07"/>
<trip id="256" depart="199.68" fromJunction="4way_G01" toJunction="4way_E04"/>
<trip id="257" depart="200.46" fromJunction="3way_H01" toJunction="4way_D04"/>
<trip id="258" depart="201.24" fromJunction="4way_E07" toJunction="3way_A06"/>
<trip id="259" depart="202.02" fromJunction="3way_B05" toJunction="3way_A04"/>
<trip id="260" depart="202.8" fromJunction="4way_G04" toJunction="4way_D03"/>
<trip id="261" depart="203.58" fromJunction="4way_B08" toJunction="3way_B10"/>
<trip id="262" depart="204.36" fromJunction="3way_B03" toJunction="3way_A05"/>
<trip id="263" depart="205.14000000000001" fromJunction="3way_H01" toJunction="4way_D09"/>
<trip id="264" depart="205.92000000000002" fromJunction="3way_D10" toJunction="3way_H06"/>
<trip id="265" depart="206.70000000000002" fromJunction="4way_E06" toJunction="4way_D06"/>
<trip id="266" depart="207.48000000000002" fromJunction="4way_G06" toJunction="4way_E04"/>
<trip id="267" depart="208.26000000000002" fromJunction="3way_E02" toJunction="3way_A04"/>
<trip id="268" depart="209.04000000000002" fromJunction="4way_D07" toJunction="4way_D08"/>
<trip id="269" depart="209.82" fromJunction="3way_A05" toJunction="4way_G07"/>
<trip id="270" depart="210.6" fromJunction="4way_F05" toJunction="4way_E06"/>
<trip id="271" depart="211.38" fromJunction="3way_B03" toJunction="4way_C09"/>
<trip id="272" depart="212.16" fromJunction="3way_C10" toJunction="4way_F03"/>
<trip id="273" depart="212.94" fromJunction="3way_D01" toJunction="3way_C03"/>
<trip id="274" depart="213.72" fromJunction="3way_B10" toJunction="4way_E05"/>
<trip id="275" depart="214.5" fromJunction="4way_B08" toJunction="3way_H05"/>
<trip id="276" depart="215.28" fromJunction="4way_G01" toJunction="4way_D09"/>
<trip id="277" depart="216.06" fromJunction="3way_E10" toJunction="4way_D09"/>
<trip id="278" depart="216.84" fromJunction="4way_F09" toJunction="4way_G08"/>
<trip id="279" depart="217.62" fromJunction="4way_G04" toJunction="4way_C09"/>
<trip id="280" depart="218.4" fromJunction="4way_G04" toJunction="4way_D03"/>
<trip id="281" depart="219.18" fromJunction="4way_G07" toJunction="4way_F06"/>
<trip id="282" depart="219.96" fromJunction="3way_A06" toJunction="4way_G04"/>
<trip id="283" depart="220.74" fromJunction="4way_B07" toJunction="3way_H09"/>
<trip id="284" depart="221.52" fromJunction="3way_G00" toJunction="4way_G06"/>
<trip id="285" depart="222.3" fromJunction="4way_G01" toJunction="3way_G10"/>
<trip id="286" depart="223.08" fromJunction="4way_G03" toJunction="3way_C04"/>
<trip id="287" depart="223.86" fromJunction="4way_E03" toJunction="3way_G10"/>
<trip id="288" depart="224.64000000000001" fromJunction="3way_A09" toJunction="3way_C03"/>
<trip id="289" depart="225.42000000000002" fromJunction="3way_H04" toJunction="4way_E06"/>
<trip id="290" depart="226.20000000000002" fromJunction="3way_A08" toJunction="3way_A06"/>
<trip id="291" depart="226.98000000000002" fromJunction="4way_G03" toJunction="3way_A08"/>
<trip id="292" depart="227.76000000000002" fromJunction="4way_G02" toJunction="4way_E09"/>
<trip id="293" depart="228.54000000000002" fromJunction="4way_D03" toJunction="4way_E04"/>
<trip id="294" depart="229.32000000000002" fromJunction="4way_G09" toJunction="3way_G00"/>
<trip id="295" depart="230.1" fromJunction="3way_C06" toJunction="3way_B05"/>
<trip id="296" depart="230.88" fromJunction="4way_G08" toJunction="4way_B06"/>
<trip id="297" depart="231.66" fromJunction="3way_E00" toJunction="3way_H09"/>
<trip id="298" depart="232.44" fromJunction="3way_A08" toJunction="4way_E04"/>
<trip id="299" depart="233.22" fromJunction="4way_C07" toJunction="4way_D08"/>
<trip id="300" depart="234.0" fromJunction="3way_H04" toJunction="3way_H01"/>
<trip id="301" depart="234.78" fromJunction="3way_B05" toJunction="3way_D01"/>
<trip id="302" depart="235.56" fromJunction="3way_B03" toJunction="3way_C04"/>
<trip id="303" depart="236.34" fromJunction="3way_E10" toJunction="4way_G07"/>
<trip id="304" depart="237.12" fromJunction="3way_B03" toJunction="3way_B10"/>
<trip id="305" depart="237.9" fromJunction="4way_E03" toJunction="4way_D07"/>
<trip id="306" depart="238.68" fromJunction="4way_G09" toJunction="4way_B07"/>
<trip id="307" depart="239.46" fromJunction="4way_E07" toJunction="4way_B04"/>
<trip id="308" depart="240.24" fromJunction="4way_F05" toJunction="4way_E01"/>
<trip id="309" depart="241.02" fromJunction="4way_G02" toJunction="4way_G08"/>
<trip id="310" depart="241.8" fromJunction="4way_E06" toJunction="4way_F02"/>
<trip id="311" depart="242.58" fromJunction="3way_F10" toJunction="3way_B03"/>
<trip id="312" depart="243.36" fromJunction="3way_H04" toJunction="3way_A08"/>
<trip id="313" depart="244.14000000000001" fromJunction="3way_D01" toJunction="3way_C03"/>
<trip id="314" depart="244.92000000000002" fromJunction="4way_G07" toJunction="4way_F02"/>
<trip id="315" depart="245.70000000000002" fromJunction="3way_C10" toJunction="3way_D10"/>
<trip id="316" depart="246.48000000000002" fromJunction="4way_E09" toJunction="4way_D07"/>
<trip id="317" depart="247.26000000000002" fromJunction="4way_G05" toJunction="4way_F08"/>
<trip id="318" depart="248.04000000000002" fromJunction="4way_B07" toJunction="4way_G08"/>
<trip id="319" depart="248.82000000000002" fromJunction="3way_F10" toJunction="4way_B06"/>
<trip id="320" depart="249.60000000000002" fromJunction="4way_E03" toJunction="4way_E05"/>
<trip id="321" depart="250.38" fromJunction="3way_C10" toJunction="4way_F09"/>
<trip id="322" depart="251.16" fromJunction="4way_D06" toJunction="4way_C08"/>
<trip id="323" depart="251.94" fromJunction="3way_H09" toJunction="3way_H04"/>
<trip id="324" depart="252.72" fromJunction="3way_A08" toJunction="4way_F08"/>
<trip id="325" depart="253.5" fromJunction="3way_D10" toJunction="3way_C06"/>
<trip id="326" depart="254.28" fromJunction="4way_G08" toJunction="3way_C04"/>
<trip id="327" depart="255.06" fromJunction="4way_F08" toJunction="4way_B09"/>
<trip id="328" depart="255.84" fromJunction="3way_H02" toJunction="3way_D10"/>
<trip id="329" depart="256.62" fromJunction="4way_B07" toJunction="4way_B08"/>
<trip id="330" depart="257.40000000000003" fromJunction="3way_B03" toJunction="4way_E04"/>
<trip id="331" depart="258.18" fromJunction="3way_E02" toJunction="4way_E07"/>
<trip id="332" depart="258.96000000000004" fromJunction="3way_C03" toJunction="4way_B07"/>
<trip id="333" depart="259.74" fromJunction="3way_A09" toJunction="4way_D09"/>
<trip id="334" depart="260.52" fromJunction="4way_E03" toJunction="4way_F06"/>
<trip id="335" depart="261.3" fromJunction="4way_D03" toJunction="4way_E08"/>
<trip id="336" depart="262.08" fromJunction="4way_B08" toJunction="3way_C10"/>
<trip id="337" depart="262.86" fromJunction="3way_E00" toJunction="4way_B08"/>
<trip id="338" depart="263.64" fromJunction="4way_E09" toJunction="3way_A06"/>
<trip id="339" depart="264.42" fromJunction="4way_D08" toJunction="3way_C10"/>
<trip id="340" depart="265.2" fromJunction="4way_E01" toJunction="4way_E06"/>
<trip id="341" depart="265.98" fromJunction="3way_C10" toJunction="4way_G07"/>
<trip id="342" depart="266.76" fromJunction="3way_A06" toJunction="4way_F09"/>
<trip id="343" depart="267.54" fromJunction="4way_B08" toJunction="4way_D03"/>
<trip id="344" depart="268.32" fromJunction="3way_B05" toJunction="3way_D01"/>
<trip id="345" depart="269.1" fromJunction="3way_A05" toJunction="3way_H08"/>
<trip id="346" depart="269.88" fromJunction="4way_F07" toJunction="3way_D01"/>
<trip id="347" depart="270.66" fromJunction="3way_H05" toJunction="3way_B05"/>
<trip id="348" depart="271.44" fromJunction="3way_B10" toJunction="3way_A09"/>
<trip id="349" depart="272.22" fromJunction="3way_C10" toJunction="3way_H06"/>
<trip id="350" depart="273.0" fromJunction="3way_A08" toJunction="3way_H02"/>
<trip id="351" depart="273.78000000000003" fromJunction="4way_F08" toJunction="3way_A08"/>
<trip id="352" depart="274.56" fromJunction="3way_D05" toJunction="3way_G10"/>
<trip id="353" depart="275.34000000000003" fromJunction="3way_C04" toJunction="4way_F02"/>
<trip id="354" depart="276.12" fromJunction="3way_H07" toJunction="3way_G10"/>
<trip id="355" depart="276.90000000000003" fromJunction="4way_D03" toJunction="3way_C03"/>
<trip id="356" depart="277.68" fromJunction="4way_F03" toJunction="4way_B04"/>
<trip id="357" depart="278.46000000000004" fromJunction="4way_G04" toJunction="4way_F01"/>
<trip id="358" depart="279.24" fromJunction="4way_G02" toJunction="3way_A06"/>
<trip id="359" depart="280.02" fromJunction="4way_G01" toJunction="4way_B07"/>
<trip id="360" depart="280.8" fromJunction="4way_G09" toJunction="4way_E05"/>
<trip id="361" depart="281.58" fromJunction="3way_B05" toJunction="4way_F01"/>
<trip id="362" depart="282.36" fromJunction="4way_B06" toJunction="4way_C09"/>
<trip id="363" depart="283.14" fromJunction="3way_H03" toJunction="3way_B05"/>
<trip id="364" depart="283.92" fromJunction="4way_E05" toJunction="4way_C08"/>
<trip id="365" depart="284.7" fromJunction="3way_D01" toJunction="3way_H02"/>
<trip id="366" depart="285.48" fromJunction="3way_G10" toJunction="3way_D10"/>
<trip id="367" depart="286.26" fromJunction="4way_G07" toJunction="3way_A07"/>
<trip id="368" depart="287.04" fromJunction="3way_H09" toJunction="3way_A04"/>