<?xml version="1.0" encoding="UTF-8"?>
<nodes xmlns:xsi="http://www.w3.org/2001/XMLSchema-instance" xsi:noNamespaceSchemaLocation="http://sumo.dlr.de/xsd/nodes_file.xsd">
    <node id="3way_A04" x="400.00" y="0.00" type="traffic_light" tlLayout="opposites"/>
    <node id="3way_A05" x="500.00" y="0.00" type="traffic_light" tlLayout="opposites"/>
    <node id="3way_A06" x="600.00" y="0.00" type="traffic_light" tlLayout="opposites"/>
    <node id="3way_A07" x="700.00" y="0.00" type="traffic_light" tlLayout="opposites"/>
    <node id="3way_A08" x="800.00" y="0.00" type="traffic_light" tlLayout="opposites"/>
    <node id="3way_A09" x="900.00" y="0.00" type="traffic_light" tlLayout="opposites"/>
    <node id="3way_B03" x="300.00" y="-100.00" type="traffic_light" tlLayout="opposites"/>
    <node id="3way_B05" x="500.00" y="-100.00" type="traffic_light" tlLayout="opposites"/>
    <node id="3way_B10" x="1000.00" y="-100.00" type="traffic_light" tlLayout="opposites"/>
    <node id="3way_C03" x="300.00" y="-200.00" type="traffic_light" tlLayout="opposites"/>
    <node id="3way_C04" x="400.00" y="-200.00" type="traffic_light" tlLayout="opposites"/>
    <node id="3way_C06" x="600.00" y="-200.00" type="traffic_light" tlLayout="opposites"/>
    <node id="3way_C10" x="1000.00" y="-200.00" type="traffic_light" tlLayout="opposites"/>
    <node id="3way_D01" x="100.00" y="-300.00" type="traffic_light" tlLayout="opposites"/>
    <node id="3way_D05" x="500.00" y="-300.00" type="traffic_light" tlLayout="opposites"/>
    <node id="3way_D10" x="1000.00" y="-300.00" type="traffic_light" tlLayout="opposites"/>
    <node id="3way_E00" x="0.00" y="-400.00" type="traffic_light" tlLayout="opposites"/>
    <node id="3way_E02" x="200.00" y="-400.00" type="traffic_light" tlLayout="opposites"/>
    <node id="3way_E10" x="1000.00" y="-400.00" type="traffic_light" tlLayout="opposites"/>
    <node id="3way_F00" x="0.00" y="-500.00" type="traffic_light" tlLayout="opposites"/>
    <node id="3way_F10" x="1000.00" y="-500.00" type="traffic_light" tlLayout="opposites"/>
    <node id="3way_G00" x="0.00" y="-600.00" type="traffic_light" tlLayout="opposites"/>
    <node id="3way_G10" x="1000.00" y="-600.00" type="traffic_light" tlLayout="opposites"/>
    <node id="3way_H01" x="100.00" y="-700.00" type="traffic_light" tlLayout="opposites"/>
    <node id="3way_H02" x="200.00" y="-700.00" type="traffic_light" tlLayout="opposites"/>
    <node id="3way_H03" x="300.00" y="-700.00" type="traffic_light" tlLayout="opposites"/>
    <node id="3way_H04" x="400.00" y="-700.00" type="traffic_light" tlLayout="opposites"/>
    <node id="3way_H05" x="500.00" y="-700.00" type="traffic_light" tlLayout="opposites"/>
    <node id="3way_H06" x="600.00" y="-700.00" type="traffic_light" tlLayout="opposites"/>
    <node id="3way_H07" x="700.00" y="-700.00" type="traffic_light" tlLayout="opposites"/>
    <node id="3way_H08" x="800.00" y="-700.00" type="traffic_light" tlLayout="opposites"/>
    <node id="3way_H09" x="900.00" y="-700.00" type="traffic_light" tlLayout="opposites"/>
    <node id="4way_B04" x="400.00" y="-100.00" type="traffic_light" tlLayout="opposites"/>
    <node id="4way_B06" x="600.00" y="-100.00" type="traffic_light" tlLayout="opposites"/>
    <node id="4way_B07" x="700.00" y="-100.00" type="traffic_light" tlLayout="opposites"/>
    <node id="4way_B08" x="800.00" y="-100.00" type="traffic_light" tlLayout="opposites"/>
    <node id="4way_B09" x="900.00" y="-100.00" type="traffic_light" tlLayout="opposites"/>
    <node id="4way_C07" x="700.00" y="-200.00" type="traffic_light" tlLayout="opposites"/>
    <node id="4way_C08" x="800.00" y="-200.00" type="traffic_light" tlLayout="opposites"/>
    <node id="4way_C09" x="900.00" y="-200.00" type="traffic_light" tlLayout="opposites"/>
    <node id="4way_D03" x="300.00" y="-300.00" type="traffic_light" tlLayout="opposites"/>
    <node id="4way_D04" x="400.00" y="-300.00" type="traffic_light" tlLayout="opposites"/>
    <node id="4way_D06" x="600.00" y="-300.00" type="traffic_light" tlLayout="opposites"/>
    <node id="4way_D07" x="700.00" y="-300.00" type="traffic_light" tlLayout="opposites"/>
    <node id="4way_D08" x="800.00" y="-300.00" type="traffic_light" tlLayout="opposites"/>
    <node id="4way_D09" x="900.00" y="-300.00" type="traffic_light" tlLayout="opposites"/>
    <node id="4way_E01" x="100.00" y="-400.00" type="traffic_light" tlLayout="opposites"/>
    <node id="4way_E03" x="300.00" y="-400.00" type="traffic_light" tlLayout="opposites"/>
    <node id="4way_E04" x="400.00" y="-400.00" type="traffic_light" tlLayout="opposites"/>
    <node id="4way_E05" x="500.00" y="-400.00" type="traffic_light" tlLayout="opposites"/>
    <node id="4way_E06" x="600.00" y="-400.00" type="traffic_light" tlLayout="opposites"/>
    <node id="4way_E07" x="700.00" y="-400.00" type="traffic_light" tlLayout="opposites"/>
    <node id="4way_E08" x="800.00" y="-400.00" type="traffic_light" tlLayout="opposites"/>
    <node id="4way_E09" x="900.00" y="-400.00" type="traffic_light" tlLayout="opposites"/>
    <node id="4way_F01" x="100.00" y="-500.00" type="traffic_light" tlLayout="opposites"/>
    <node id="4way_F02" x="200.00" y="-500.00" type="traffic_light" tlLayout="opposites"/>
    <node id="4way_F03" x="300.00" y="-500.00" type="traffic_light" tlLayout="opposites"/>
    <node id="4way_F04" x="400.00" y="-500.00" type="traffic_light" tlLayout="opposites"/>
    <node id="4way_F05" x="500.00" y="-500.00" type="traffic_light" tlLayout="opposites"/>
    <node id="4way_F06" x="600.00" y="-500.00" type="traffic_light" tlLayout="opposites"/>
    <node id="4way_F07" x="700.00" y="-500.00" type="traffic_light" tlLayout="opposites"/>
    <node id="4way_F08" x="800.00" y="-500.00" type="traffic_light" tlLayout="opposites"/>
    <node id="4way_F09" x="900.00" y="-500.00" type="traffic_light" tlLayout="opposites"/>
    <node id="4way_G01" x="100.00" y="-600.00" type="traffic_light" tlLayout="opposites"/>
    <node id="4way_G02" x="200.00" y="-600.00" type="traffic_light" tlLayout="opposites"/>
    <node id="4way_G03" x="300.00" y="-600.00" type="traffic_light" tlLayout="opposites"/>
    <node id="4way_G04" x="400.00" y="-600.00" type="traffic_light" tlLayout="opposites"/>
    <node id="4way_G05" x="500.00" y="-600.00" type="traffic_light" tlLayout="opposites"/>
    <node id="4way_G06" x="600.00" y="-600.00" type="traffic_light" tlLayout="opposites"/>
    <node id="4way_G07" x="700.00" y="-600.00" type="traffic_light" tlLayout="opposites"/>
    <node id="4way_G08" x="800.00" y="-600.00" type="traffic_light" tlLayout="opposites"/>
    <node id="4way_G09" x="900.00" y="-600.00" type="traffic_light" tlLayout="opposites"/>
</nodes>
