<routes xmlns:xsi="http://www.w3.org/2001/XMLSchema-instance" xsi:noNamespaceSchemaLocation="http://sumo.dlr.de/xsd/routes_file.xsd">
<trip id="0" depart="0.0" fromJunction="4way_20" toJunction="4way_13"/>
<trip id="1" depart="0.4166" fromJunction="4way_13" toJunction="4way_25"/>
<trip id="2" depart="0.8332" fromJunction="4way_8" toJunction="3way_18"/>
<trip id="3" depart="1.2498" fromJunction="4way_10" toJunction="3way_12"/>
<trip id="4" depart="1.6664" fromJunction="3way_24" toJunction="4way_22"/>
<trip id="5" depart="2.083" fromJunction="4way_7" toJunction="4way_15"/>
<trip id="6" depart="2.4996" fromJunction="4way_16" toJunction="4way_19"/>
<trip id="7" depart="2.9162000000000003" fromJunction="4way_21" toJunction="3way_1"/>
<trip id="8" depart="3.3328" fromJunction="4way_27" toJunction="4way_9"/>
<trip id="9" depart="3.7494" fromJunction="4way_15" toJunction="4way_28"/>
<trip id="10" depart="4.166" fromJunction="4way_9" toJunction="3way_12"/>
<trip id="11" depart="4.5826" fromJunction="4way_8" toJunction="3way_4"/>
<trip id="12" depart="4.9992" fromJunction="4way_22" toJunction="3way_11"/>
<trip id="13" depart="5.4158" fromJunction="3way_18" toJunction="4way_7"/>
<trip id="14" depart="5.832400000000001" fromJunction="4way_9" toJunction="3way_34"/>
<trip id="15" depart="6.2490000000000006" fromJunction="4way_19" toJunction="3way_12"/>
<trip id="16" depart="6.6656" fromJunction="4way_25" toJunction="3way_1"/>
<trip id="17" depart="7.0822" fromJunction="4way_14" toJunction="4way_22"/>
<trip id="18" depart="7.4988" fromJunction="3way_18" toJunction="3way_31"/>
<trip id="19" depart="7.915400000000001" fromJunction="3way_2" toJunction="4way_20"/>
<trip id="20" depart="8.332" fromJunction="3way_11" toJunction="3way_23"/>
<trip id="21" depart="8.7486" fromJunction="3way_31" toJunction="3way_32"/>
<trip id="22" depart="9.1652" fromJunction="3way_12" toJunction="4way_19"/>
<trip id="23" depart="9.581800000000001" fromJunction="3way_4" toJunction="4way_28"/>
<trip id="24" depart="9.9984" fromJunction="3way_17" toJunction="3way_23"/>
<trip id="25" depart="10.415000000000001" fromJunction="3way_34" toJunction="4way_8"/>
<trip id="26" depart="10.8316" fromJunction="3way_29" toJunction="3way_12"/>
<trip id="27" depart="11.2482" fromJunction="3way_4" toJunction="3way_17"/>
<trip id="28" depart="11.664800000000001" fromJunction="3way_11" toJunction="4way_14"/>
<trip id="29" depart="12.0814" fromJunction="3way_31" toJunction="3way_23"/>
<trip id="30" depart="12.498000000000001" fromJunction="3way_4" toJunction="4way_21"/>
<trip id="31" depart="12.9146" fromJunction="3way_4" toJunction="4way_21"/>
<trip id="32" depart="13.3312" fromJunction="3way_12" toJunction="4way_28"/>
<trip id="33" depart="13.747800000000002" fromJunction="4way_25" toJunction="4way_28"/>
<trip id="34" depart="14.1644" fromJunction="3way_2" toJunction="4way_26"/>
<trip id="35" depart="14.581000000000001" fromJunction="3way_4" toJunction="3way_33"/>
<trip id="36" depart="14.9976" fromJunction="3way_4" toJunction="3way_33"/>
<trip id="37" depart="15.414200000000001" fromJunction="3way_18" toJunction="3way_32"/>
<trip id="38" depart="15.830800000000002" fromJunction="4way_20" toJunction="3way_3"/>
<trip id="39" depart="16.247400000000003" fromJunction="3way_34" toJunction="4way_19"/>
<trip id="40" depart="16.664" fromJunction="3way_4" toJunction="4way_7"/>
<trip id="41" depart="17.0806" fromJunction="4way_16" toJunction="4way_19"/>
<trip id="42" depart="17.4972" fromJunction="4way_14" toJunction="3way_32"/>
<trip id="43" depart="17.913800000000002" fromJunction="4way_20" toJunction="3way_11"/>
<trip id="44" depart="18.3304" fromJunction="3way_17" toJunction="3way_33"/>
<trip id="45" depart="18.747" fromJunction="3way_1" toJunction="4way_19"/>
<trip id="46" depart="19.163600000000002" fromJunction="3way_1" toJunction="4way_21"/>
<trip id="47" depart="19.5802" fromJunction="3way_34" toJunction="4way_14"/>
<trip id="48" depart="19.9968" fromJunction="4way_22" toJunction="4way_26"/>
<trip id="49" depart="20.413400000000003" fromJunction="4way_19" toJunction="3way_29"/>
<trip id="50" depart="20.830000000000002" fromJunction="4way_22" toJunction="3way_29"/>
<trip id="51" depart="21.2466" fromJunction="4way_27" toJunction="3way_12"/>
<trip id="52" depart="21.6632" fromJunction="3way_33" toJunction="4way_20"/>
<trip id="53" depart="22.079800000000002" fromJunction="3way_24" toJunction="4way_21"/>
<trip id="54" depart="22.4964" fromJunction="4way_19" toJunction="4way_10"/>
<trip id="55" depart="22.913" fromJunction="4way_20" toJunction="4way_10"/>
<trip id="56" depart="23.329600000000003" fromJunction="4way_7" toJunction="4way_26"/>
<trip id="57" depart="23.7462" fromJunction="4way_8" toJunction="4way_22"/>
<trip id="58" depart="24.1628" fromJunction="4way_25" toJunction="3way_18"/>
<trip id="59" depart="24.579400000000003" fromJunction="3way_33" toJunction="3way_1"/>
<trip id="60" depart="24.996000000000002" fromJunction="3way_33" toJunction="4way_14"/>
<trip id="61" depart="25.4126" fromJunction="3way_18" toJunction="4way_25"/>
<trip id="62" depart="25.8292" fromJunction="3way_33" toJunction="3way_11"/>
<trip id="63" depart="26.245800000000003" fromJunction="4way_8" toJunction="4way_19"/>
<trip id="64" depart="26.6624" fromJunction="3way_18" toJunction="4way_8"/>
<trip id="65" depart="27.079" fromJunction="3way_31" toJunction="4way_10"/>
<trip id="66" depart="27.495600000000003" fromJunction="4way_10" toJunction="3way_18"/>
<trip id="67" depart="27.912200000000002" fromJunction="4way_20" toJunction="4way_15"/>
<trip id="68" depart="28.3288" fromJunction="4way_16" toJunction="3way_4"/>
<trip id="69" depart="28.7454" fromJunction="4way_28" toJunction="4way_20"/>
<trip id="70" depart="29.162000000000003" fromJunction="4way_27" toJunction="3way_11"/>
<trip id="71" depart="29.5786" fromJunction="4way_25" toJunction="3way_17"/>
<trip id="72" depart="29.9952" fromJunction="4way_27" toJunction="3way_4"/>
<trip id="73" depart="30.411800000000003" fromJunction="4way_19" toJunction="4way_15"/>
<trip id="74" depart="30.828400000000002" fromJunction="3way_3" toJunction="3way_18"/>
<trip id="75" depart="31.245" fromJunction="3way_12" toJunction="4way_20"/>
<trip id="76" depart="31.661600000000004" fromJunction="4way_27" toJunction="4way_26"/>
<trip id="77" depart="32.0782" fromJunction="4way_27" toJunction="4way_28"/>
<trip id="78" depart="32.494800000000005" fromJunction="3way_31" toJunction="3way_1"/>
<trip id="79" depart="32.9114" fromJunction="3way_17" toJunction="4way_26"/>
<trip id="80" depart="33.328" fromJunction="3way_2" toJunction="4way_7"/>
<trip id="81" depart="33.744600000000005" fromJunction="3way_1" toJunction="3way_23"/>
<trip id="82" depart="34.1612" fromJunction="3way_29" toJunction="4way_15"/>
<trip id="83" depart="34.5778" fromJunction="4way_16" toJunction="3way_31"/>
<trip id="84" depart="34.9944" fromJunction="3way_2" toJunction="4way_20"/>
<trip id="85" depart="35.411" fromJunction="4way_25" toJunction="3way_17"/>
<trip id="86" depart="35.827600000000004" fromJunction="3way_29" toJunction="4way_19"/>
<trip id="87" depart="36.2442" fromJunction="4way_25" toJunction="4way_16"/>
<trip id="88" depart="36.6608" fromJunction="4way_19" toJunction="4way_13"/>
<trip id="89" depart="37.077400000000004" fromJunction="3way_33" toJunction="4way_26"/>
<trip id="90" depart="37.494" fromJunction="3way_23" toJunction="3way_24"/>
<trip id="91" depart="37.9106" fromJunction="4way_22" toJunction="3way_17"/>
<trip id="92" depart="38.327200000000005" fromJunction="3way_6" toJunction="4way_26"/>
<trip id="93" depart="38.7438" fromJunction="3way_34" toJunction="3way_29"/>
<trip id="94" depart="39.1604" fromJunction="3way_18" toJunction="3way_2"/>
<trip id="95" depart="39.577000000000005" fromJunction="4way_20" toJunction="3way_33"/>
<trip id="96" depart="39.9936" fromJunction="3way_17" toJunction="3way_24"/>
<trip id="97" depart="40.4102" fromJunction="3way_3" toJunction="3way_1"/>
<trip id="98" depart="40.826800000000006" fromJunction="3way_12" toJunction="4way_14"/>
<trip id="99" depart="41.2434" fromJunction="4way_10" toJunction="4way_13"/>
<trip id="100" depart="41.660000000000004" fromJunction="3way_23" toJunction="4way_28"/>
<trip id="101" depart="42.0766" fromJunction="3way_34" toJunction="4way_14"/>
<trip id="102" depart="42.4932" fromJunction="4way_9" toJunction="3way_1"/>
<trip id="103" depart="42.909800000000004" fromJunction="3way_24" toJunction="3way_32"/>
<trip id="104" depart="43.3264" fromJunction="4way_21" toJunction="4way_19"/>
<trip id="105" depart="43.743" fromJunction="4way_27" toJunction="4way_8"/>
<trip id="106" depart="44.159600000000005" fromJunction="4way_15" toJunction="3way_34"/>
<trip id="107" depart="44.5762" fromJunction="4way_22" toJunction="3way_17"/>
<trip id="108" depart="44.9928" fromJunction="3way_23" toJunction="4way_14"/>
<trip id="109" depart="45.409400000000005" fromJunction="4way_26" toJunction="4way_22"/>
<trip id="110" depart="45.826" fromJunction="3way_23" toJunction="3way_34"/>
<trip id="111" depart="46.2426" fromJunction="3way_1" toJunction="4way_7"/>
<trip id="112" depart="46.659200000000006" fromJunction="3way_18" toJunction="3way_23"/>
<trip id="113" depart="47.0758" fromJunction="3way_12" toJunction="3way_31"/>
<trip id="114" depart="47.4924" fromJunction="4way_19" toJunction="3way_34"/>
<trip id="115" depart="47.909000000000006" fromJunction="3way_4" toJunction="4way_27"/>
<trip id="116" depart="48.3256" fromJunction="3way_11" toJunction="4way_7"/>
<trip id="117" depart="48.742200000000004" fromJunction="3way_24" toJunction="4way_20"/>
<trip id="118" depart="49.15880000000001" fromJunction="3way_17" toJunction="4way_19"/>
<trip id="119" depart="49.5754" fromJunction="3way_6" toJunction="3way_11"/>
<trip id="120" depart="49.992000000000004" fromJunction="4way_22" toJunction="3way_31"/>
<trip id="121" depart="50.4086" fromJunction="4way_26" toJunction="4way_9"/>
<trip id="122" depart="50.8252" fromJunction="3way_3" toJunction="4way_10"/>
<trip id="123" depart="51.241800000000005" fromJunction="4way_19" toJunction="4way_13"/>
<trip id="124" depart="51.6584" fromJunction="3way_33" toJunction="4way_22"/>
<trip id="125" depart="52.075" fromJunction="3way_4" toJunction="3way_29"/>
<trip id="126" depart="52.491600000000005" fromJunction="4way_16" toJunction="3way_1"/>
<trip id="127" depart="52.9082" fromJunction="4way_15" toJunction="4way_14"/>
<trip id="128" depart="53.3248" fromJunction="4way_19" toJunction="3way_33"/>
<trip id="129" depart="53.741400000000006" fromJunction="3way_6" toJunction="3way_3"/>
<trip id="130" depart="54.158" fromJunction="4way_10" toJunction="4way_28"/>
<trip id="131" depart="54.574600000000004" fromJunction="4way_22" toJunction="3way_32"/>
<trip id="132" depart="54.991200000000006" fromJunction="4way_22" toJunction="3way_29"/>
<trip id="133" depart="55.4078" fromJunction="4way_15" toJunction="4way_22"/>
<trip id="134" depart="55.824400000000004" fromJunction="4way_27" toJunction="4way_8"/>
<trip id="135" depart="56.24100000000001" fromJunction="4way_27" toJunction="3way_33"/>
<trip id="136" depart="56.6576" fromJunction="3way_1" toJunction="4way_25"/>
<trip id="137" depart="57.074200000000005" fromJunction="3way_11" toJunction="3way_31"/>
<trip id="138" depart="57.4908" fromJunction="3way_6" toJunction="4way_28"/>
<trip id="139" depart="57.9074" fromJunction="4way_8" toJunction="3way_6"/>
<trip id="140" depart="58.324000000000005" fromJunction="3way_11" toJunction="3way_31"/>
<trip id="141" depart="58.7406" fromJunction="3way_23" toJunction="4way_21"/>
<trip id="142" depart="59.1572" fromJunction="3way_29" toJunction="4way_7"/>
<trip id="143" depart="59.573800000000006" fromJunction="4way_27" toJunction="3way_4"/>
<trip id="144" depart="59.9904" fromJunction="4way_22" toJunction="4way_28"/>
<trip id="145" depart="60.407000000000004" fromJunction="4way_9" toJunction="4way_16"/>
<trip id="146" depart="60.823600000000006" fromJunction="3way_3" toJunction="3way_32"/>
<trip id="147" depart="61.2402" fromJunction="3way_29" toJunction="3way_18"/>
<trip id="148" depart="61.656800000000004" fromJunction="3way_2" toJunction="3way_11"/>
<trip id="149" depart="62.07340000000001" fromJunction="3way_1" toJunction="4way_26"/>
<trip id="150" depart="62.49" fromJunction="3way_11" toJunction="4way_9"/>
<trip id="151" depart="62.906600000000005" fromJunction="3way_29" toJunction="4way_14"/>
<trip id="152" depart="63.32320000000001" fromJunction="4way_13" toJunction="3way_18"/>
<trip id="153" depart="63.7398" fromJunction="4way_26" toJunction="4way_27"/>
<trip id="154" depart="64.1564" fromJunction="3way_11" toJunction="3way_34"/>
<trip id="155" depart="64.57300000000001" fromJunction="3way_33" toJunction="3way_2"/>
<trip id="156" depart="64.98960000000001" fromJunction="3way_12" toJunction="3way_34"/>
<trip id="157" depart="65.4062" fromJunction="4way_20" toJunction="4way_14"/>
<trip id="158" depart="65.8228" fromJunction="3way_24" toJunction="3way_33"/>
<trip id="159" depart="66.2394" fromJunction="4way_15" toJunction="3way_17"/>
<trip id="160" depart="66.656" fromJunction="4way_20" toJunction="3way_2"/>
<trip id="161" depart="67.07260000000001" fromJunction="3way_31" toJunction="3way_34"/>
<trip id="162" depart="67.48920000000001" fromJunction="3way_34" toJunction="4way_19"/>
<trip id="163" depart="67.9058" fromJunction="3way_23" toJunction="3way_31"/>
<trip id="164" depart="68.3224" fromJunction="3way_2" toJunction="3way_12"/>
<trip id="165" depart="68.739" fromJunction="3way_3" toJunction="4way_15"/>
<trip id="166" depart="69.1556" fromJunction="3way_33" toJunction="4way_7"/>
<trip id="167" depart="69.57220000000001" fromJunction="4way_22" toJunction="4way_19"/>
<trip id="168" depart="69.9888" fromJunction="3way_2" toJunction="4way_8"/>
<trip id="169" depart="70.4054" fromJunction="4way_7" toJunction="3way_18"/>
<trip id="170" depart="70.822" fromJunction="4way_14" toJunction="4way_13"/>
<trip id="171" depart="71.2386" fromJunction="3way_11" toJunction="3way_34"/>
<trip id="172" depart="71.65520000000001" fromJunction="4way_22" toJunction="3way_24"/>
<trip id="173" depart="72.07180000000001" fromJunction="4way_10" toJunction="3way_17"/>
<trip id="174" depart="72.4884" fromJunction="3way_12" toJunction="4way_13"/>
<trip id="175" depart="72.905" fromJunction="3way_12" toJunction="4way_10"/>
<trip id="176" depart="73.3216" fromJunction="3way_24" toJunction="4way_26"/>
<trip id="177" depart="73.7382" fromJunction="4way_20" toJunction="4way_10"/>
<trip id="178" depart="74.15480000000001" fromJunction="3way_32" toJunction="4way_20"/>
<trip id="179" depart="74.57140000000001" fromJunction="4way_8" toJunction="4way_9"/>
<trip id="180" depart="74.988" fromJunction="3way_17" toJunction="3way_29"/>
<trip id="181" depart="75.4046" fromJunction="4way_22" toJunction="4way_15"/>
<trip id="182" depart="75.8212" fromJunction="4way_19" toJunction="3way_12"/>
<trip id="183" depart="76.23780000000001" fromJunction="3way_12" toJunction="4way_27"/>
<trip id="184" depart="76.65440000000001" fromJunction="4way_19" toJunction="4way_22"/>
<trip id="185" depart="77.071" fromJunction="4way_16" toJunction="4way_21"/>
<trip id="186" depart="77.4876" fromJunction="3way_17" toJunction="4way_21"/>
<trip id="187" depart="77.9042" fromJunction="3way_24" toJunction="4way_8"/>
<trip id="188" depart="78.3208" fromJunction="3way_18" toJunction="3way_3"/>
<trip id="189" depart="78.73740000000001" fromJunction="4way_27" toJunction="3way_34"/>
<trip id="190" depart="79.15400000000001" fromJunction="4way_22" toJunction="3way_2"/>
<trip id="191" depart="79.5706" fromJunction="3way_17" toJunction="3way_1"/>
<trip id="192" depart="79.9872" fromJunction="4way_16" toJunction="3way_24"/>
<trip id="193" depart="80.4038" fromJunction="4way_22" toJunction="3way_4"/>
<trip id="194" depart="80.8204" fromJunction="3way_12" toJunction="4way_27"/>
<trip id="195" depart="81.23700000000001" fromJunction="3way_29" toJunction="3way_32"/>
<trip id="196" depart="81.65360000000001" fromJunction="3way_2" toJunction="4way_25"/>
<trip id="197" depart="82.0702" fromJunction="3way_18" toJunction="3way_1"/>
<trip id="198" depart="82.4868" fromJunction="3way_34" toJunction="3way_3"/>
<trip id="199" depart="82.9034" fromJunction="3way_34" toJunction="3way_29"/>
<trip id="200" depart="83.32000000000001" fromJunction="3way_1" toJunction="3way_11"/>
<trip id="201" depart="83.73660000000001" fromJunction="4way_25" toJunction="3way_4"/>
<trip id="202" depart="84.1532" fromJunction="3way_17" toJunction="3way_18"/>
<trip id="203" depart="84.5698" fromJunction="3way_6" toJunction="4way_8"/>
<trip id="204" depart="84.9864" fromJunction="3way_3" toJunction="4way_28"/>
<trip id="205" depart="85.403" fromJunction="3way_33" toJunction="4way_15"/>
<trip id="206" depart="85.81960000000001" fromJunction="4way_14" toJunction="3way_29"/>
<trip id="207" depart="86.23620000000001" fromJunction="4way_14" toJunction="3way_29"/>
<trip id="208" depart="86.6528" fromJunction="3way_18" toJunction="4way_7"/>
<trip id="209" depart="87.0694" fromJunction="3way_33" toJunction="4way_13"/>
<trip id="210" depart="87.486" fromJunction="3way_18" toJunction="4way_20"/>
<trip id="211" depart="87.9026" fromJunction="4way_21" toJunction="3way_31"/>
<trip id="212" depart="88.31920000000001" fromJunction="3way_2" toJunction="4way_16"/>
<trip id="213" depart="88.73580000000001" fromJunction="3way_31" toJunction="3way_29"/>
<trip id="214" depart="89.1524" fromJunction="4way_28" toJunction="4way_21"/>
<trip id="215" depart="89.569" fromJunction="4way_10" toJunction="4way_28"/>
<trip id="216" depart="89.9856" fromJunction="4way_28" toJunction="3way_33"/>
<trip id="217" depart="90.40220000000001" fromJunction="3way_4" toJunction="3way_29"/>
<trip id="218" depart="90.81880000000001" fromJunction="3way_29" toJunction="4way_22"/>
<trip id="219" depart="91.23540000000001" fromJunction="3way_2" toJunction="4way_20"/>
<trip id="220" depart="91.652" fromJunction="4way_10" toJunction="4way_26"/>
<trip id="221" depart="92.0686" fromJunction="3way_24" toJunction="3way_34"/>
<trip id="222" depart="92.4852" fromJunction="4way_26" toJunction="3way_31"/>
<trip id="223" depart="92.90180000000001" fromJunction="3way_17" toJunction="3way_29"/>
<trip id="224" depart="93.31840000000001" fromJunction="3way_33" toJunction="3way_12"/>
<trip id="225" depart="93.735" fromJunction="3way_29" toJunction="4way_21"/>
<trip id="226" depart="94.1516" fromJunction="4way_22" toJunction="4way_7"/>
<trip id="227" depart="94.5682" fromJunction="4way_27" toJunction="4way_8"/>
<trip id="228" depart="94.9848" fromJunction="4way_9" toJunction="4way_22"/>
<trip id="229" depart="95.40140000000001" fromJunction="4way_22" toJunction="4way_20"/>
<trip id="230" depart="95.81800000000001" fromJunction="3way_12" toJunction="4way_28"/>
<trip id="231" depart="96.2346" fromJunction="3way_33" toJunction="3way_3"/>
<trip id="232" depart="96.6512" fromJunction="3way_18" toJunction="3way_11"/>
<trip id="233" depart="97.0678" fromJunction="4way_25" toJunction="3way_11"/>
<trip id="234" depart="97.48440000000001" fromJunction="4way_10" toJunction="3way_24"/>
<trip id="235" depart="97.90100000000001" fromJunction="4way_13" toJunction="4way_22"/>
<trip id="236" depart="98.31760000000001" fromJunction="4way_19" toJunction="3way_34"/>
<trip id="237" depart="98.7342" fromJunction="3way_18" toJunction="4way_10"/>
<trip id="238" depart="99.1508" fromJunction="3way_34" toJunction="4way_13"/>
<trip id="239" depart="99.5674" fromJunction="3way_24" toJunction="3way_12"/>
<trip id="240" depart="99.98400000000001" fromJunction="4way_7" toJunction="3way_29"/>
<trip id="241" depart="100.40060000000001" fromJunction="3way_31" toJunction="3way_33"/>
<trip id="242" depart="100.8172" fromJunction="4way_9" toJunction="4way_7"/>
<trip id="243" depart="101.2338" fromJunction="4way_16" toJunction="3way_32"/>
<trip id="244" depart="101.6504" fromJunction="3way_2" toJunction="4way_27"/>
<trip id="245" depart="102.06700000000001" fromJunction="3way_12" toJunction="3way_34"/>
<trip id="246" depart="102.48360000000001" fromJunction="3way_31" toJunction="3way_4"/>
<trip id="247" depart="102.90020000000001" fromJunction="4way_14" toJunction="4way_26"/>
<trip id="248" depart="103.3168" fromJunction="4way_20" toJunction="4way_25"/>
<trip id="249" depart="103.7334" fromJunction="3way_32" toJunction="3way_23"/>
<trip id="250" depart="104.15" fromJunction="4way_10" toJunction="4way_14"/>
<trip id="251" depart="104.56660000000001" fromJunction="3way_33" toJunction="4way_13"/>
<trip id="252" depart="104.98320000000001" fromJunction="4way_20" toJunction="3way_1"/>
<trip id="253" depart="105.39980000000001" fromJunction="3way_31" toJunction="3way_1"/>
<trip id="254" depart="105.8164" fromJunction="4way_16" toJunction="4way_7"/>
<trip id="255" depart="106.233" fromJunction="3way_24" toJunction="3way_3"/>
<trip id="256" depart="106.6496" fromJunction="3way_32" toJunction="3way_1"/>
<trip id="257" depart="107.06620000000001" fromJunction="3way_34" toJunction="4way_25"/>
<trip id="258" depart="107.48280000000001" fromJunction="3way_4" toJunction="3way_23"/>
<trip id="259" depart="107.8994" fromJunction="4way_20" toJunction="4way_19"/>
<trip id="260" depart="108.316" fromJunction="4way_22" toJunction="4way_14"/>
<trip id="261" depart="108.7326" fromJunction="4way_8" toJunction="3way_1"/>
<trip id="262" depart="109.14920000000001" fromJunction="4way_19" toJunction="4way_25"/>
<trip id="263" depart="109.56580000000001" fromJunction="3way_1" toJunction="4way_22"/>
<trip id="264" depart="109.98240000000001" fromJunction="4way_21" toJunction="4way_20"/>
<trip id="265" depart="110.399" fromJunction="3way_32" toJunction="4way_7"/>
<trip id="266" depart="110.8156" fromJunction="3way_4" toJunction="4way_15"/>
<trip id="267" depart="111.2322" fromJunction="4way_7" toJunction="3way_12"/>
<trip id="268" depart="111.64880000000001" fromJunction="3way_3" toJunction="4way_20"/>
<trip id="269" depart="112.06540000000001" fromJunction="3way_18" toJunction="3way_29"/>
<trip id="270" depart="112.48200000000001" fromJunction="4way_10" toJunction="4way_25"/>
<trip id="271" depart="112.8986" fromJunction="3way_11" toJunction="4way_25"/>
<trip id="272" depart="113.3152" fromJunction="4way_27" toJunction="4way_28"/>
<trip id="273" depart="113.7318" fromJunction="4way_16" toJunction="4way_7"/>
<trip id="274" depart="114.14840000000001" fromJunction="4way_16" toJunction="4way_13"/>
<trip id="275" depart="114.56500000000001" fromJunction="4way_22" toJunction="4way_21"/>
<trip id="276" depart="114.9816" fromJunction="3way_2" toJunction="4way_16"/>
<trip id="277" depart="115.3982" fromJunction="3way_24" toJunction="3way_17"/>
<trip id="278" depart="115.8148" fromJunction="3way_33" toJunction="4way_22"/>
<trip id="279" depart="116.23140000000001" fromJunction="4way_10" toJunction="3way_17"/>
<trip id="280" depart="116.64800000000001" fromJunction="4way_16" toJunction="3way_12"/>
<trip id="281" depart="117.06460000000001" fromJunction="4way_14" toJunction="3way_17"/>
<trip id="282" depart="117.4812" fromJunction="3way_3" toJunction="3way_12"/>
<trip id="283" depart="117.8978" fromJunction="3way_29" toJunction="4way_20"/>
<trip id="284" depart="118.3144" fromJunction="4way_16" toJunction="3way_2"/>
<trip id="285" depart="118.73100000000001" fromJunction="4way_10" toJunction="4way_26"/>
<trip id="286" depart="119.14760000000001" fromJunction="4way_7" toJunction="4way_14"/>
<trip id="287" depart="119.56420000000001" fromJunction="4way_28" toJunction="3way_33"/>
<trip id="288" depart="119.9808" fromJunction="3way_6" toJunction="3way_31"/>
<trip id="289" depart="120.3974" fromJunction="4way_28" toJunction="3way_24"/>
<trip id="290" depart="120.81400000000001" fromJunction="3way_32" toJunction="3way_17"/>
<trip id="291" depart="121.23060000000001" fromJunction="3way_3" toJunction="4way_14"/>
<trip id="292" depart="121.64720000000001" fromJunction="3way_6" toJunction="4way_25"/>
<trip id="293" depart="122.0638" fromJunction="3way_29" toJunction="3way_33"/>
<trip id="294" depart="122.4804" fromJunction="3way_31" toJunction="4way_7"/>
<trip id="295" depart="122.897" fromJunction="3way_32" toJunction="3way_12"/>
<trip id="296" depart="123.31360000000001" fromJunction="3way_11" toJunction="4way_28"/>
<trip id="297" depart="123.73020000000001" fromJunction="3way_32" toJunction="3way_4"/>
<trip id="298" depart="124.14680000000001" fromJunction="4way_14" toJunction="4way_19"/>
<trip id="299" depart="124.5634" fromJunction="4way_28" toJunction="3way_24"/>
<trip id="300" depart="124.98" fromJunction="4way_26" toJunction="3way_31"/>
<trip id="301" depart="125.3966" fromJunction="4way_21" toJunction="4way_8"/>
<trip id="302" depart="125.81320000000001" fromJunction="4way_10" toJunction="4way_28"/>
<trip id="303" depart="126.22980000000001" fromJunction="4way_20" toJunction="4way_9"/>
<trip id="304" depart="126.64640000000001" fromJunction="3way_11" toJunction="3way_32"/>
<trip id="305" depart="127.063" fromJunction="3way_29" toJunction="3way_3"/>
<trip id="306" depart="127.4796" fromJunction="4way_7" toJunction="3way_18"/>
<trip id="307" depart="127.89620000000001" fromJunction="4way_22" toJunction="4way_9"/>
<trip id="308" depart="128.3128" fromJunction="4way_26" toJunction="4way_19"/>
<trip id="309" depart="128.7294" fromJunction="4way_16" toJunction="4way_27"/>
<trip id="310" depart="129.14600000000002" fromJunction="3way_24" toJunction="4way_28"/>
<trip id="311" depart="129.5626" fromJunction="3way_11" toJunction="3way_24"/>
<trip id="312" depart="129.97920000000002" fromJunction="3way_4" toJunction="4way_27"/>
<trip id="313" depart="130.3958" fromJunction="4way_19" toJunction="3way_6"/>
<trip id="314" depart="130.8124" fromJunction="3way_17" toJunction="3way_29"/>
<trip id="315" depart="131.229" fromJunction="3way_2" toJunction="4way_27"/>
<trip id="316" depart="131.6456" fromJunction="3way_4" toJunction="3way_6"/>
<trip id="317" depart="132.06220000000002" fromJunction="4way_28" toJunction="3way_12"/>
<trip id="318" depart="132.4788" fromJunction="4way_27" toJunction="3way_18"/>
<trip id="319" depart="132.8954" fromJunction="3way_34" toJunction="3way_4"/>
<trip id="320" depart="133.312" fromJunction="3way_31" toJunction="4way_14"/>
<trip id="321" depart="133.7286" fromJunction="4way_8" toJunction="4way_20"/>
<trip id="322" depart="134.14520000000002" fromJunction="3way_18" toJunction="3way_24"/>
<trip id="323" depart="134.5618" fromJunction="3way_3" toJunction="4way_25"/>
<trip id="324" depart="134.97840000000002" fromJunction="4way_8" toJunction="4way_21"/>
<trip id="325" depart="135.395" fromJunction="4way_13" toJunction="4way_26"/>
<trip id="326" depart="135.8116" fromJunction="3way_24" toJunction="3way_4"/>
<trip id="327" depart="136.22820000000002" fromJunction="3way_32" toJunction="3way_24"/>
<trip id="328" depart="136.6448" fromJunction="4way_26" toJunction="3way_1"/>
<trip id="329" depart="137.06140000000002" fromJunction="4way_25" toJunction="3way_4"/>
<trip id="330" depart="137.478" fromJunction="4way_8" toJunction="4way_20"/>
<trip id="331" depart="137.8946" fromJunction="3way_4" toJunction="4way_22"/>
<trip id="332" depart="138.3112" fromJunction="3way_1" toJunction="4way_27"/>
<trip id="333" depart="138.7278" fromJunction="3way_24" toJunction="4way_13"/>
<trip id="334" depart="139.14440000000002" fromJunction="3way_31" toJunction="4way_7"/>
<trip id="335" depart="139.561" fromJunction="3way_1" toJunction="3way_23"/>
<trip id="336" depart="139.9776" fromJunction="4way_21" toJunction="4way_7"/>
<trip id="337" depart="140.3942" fromJunction="3way_29" toJunction="3way_31"/>
<trip id="338" depart="140.8108" fromJunction="3way_4" toJunction="3way_29"/>
<trip id="339" depart="141.22740000000002" fromJunction="3way_3" toJunction="3way_34"/>
<trip id="340" depart="141.644" fromJunction="4way_27" toJunction="3way_3"/>
<trip id="341" depart="142.06060000000002" fromJunction="4way_13" toJunction="3way_17"/>
<trip id="342" depart="142.4772" fromJunction="3way_12" toJunction="4way_9"/>
<trip id="343" depart="142.8938" fromJunction="3way_23" toJunction="3way_11"/>
<trip id="344" depart="143.31040000000002" fromJunction="4way_7" toJunction="3way_18"/>
<trip id="345" depart="143.727" fromJunction="4way_15" toJunction="3way_31"/>
<trip id="346" depart="144.14360000000002" fromJunction="4way_16" toJunction="4way_9"/>
<trip id="347" depart="144.5602" fromJunction="4way_10" toJunction="3way_1"/>
<trip id="348" depart="144.9768" fromJunction="4way_10" toJunction="3way_24"/>
<trip id="349" depart="145.3934" fromJunction="4way_28" toJunction="4way_20"/>
<trip id="350" depart="145.81" fromJunction="3way_31" toJunction="4way_9"/>
<trip id="351" depart="146.22660000000002" fromJunction="3way_24" toJunction="4way_7"/>
<trip id="352" depart="146.6432" fromJunction="3way_34" toJunction="3way_31"/>
<trip id="353" depart="147.0598" fromJunction="4way_14" toJunction="3way_6"/>
<trip id="354" depart="147.4764" fromJunction="4way_7" toJunction="3way_34"/>
<trip id="355" depart="147.893" fromJunction="3way_17" toJunction="3way_4"/>
<trip id="356" depart="148.30960000000002" fromJunction="4way_28" toJunction="3way_2"/>
<trip id="357" depart="148.7262" fromJunction="3way_17" toJunction="3way_1"/>
<trip id="358" depart="149.14280000000002" fromJunction="3way_3" toJunction="4way_25"/>
<trip id="359" depart="149.5594" fromJunction="4way_26" toJunction="4way_10"/>
<trip id="360" depart="149.976" fromJunction="4way_7" toJunction="4way_22"/>
<trip id="361" depart="150.39260000000002" fromJunction="4way_13" toJunction="3way_33"/>
<trip id="362" depart="150.8092" fromJunction="4way_7" toJunction="4way_16"/>
<trip id="363" depart="151.22580000000002" fromJunction="4way_10" toJunction="3way_34"/>
<trip id="364" depart="151.6424" fromJunction="3way_1" toJunction="3way_31"/>
<trip id="365" depart="152.059" fromJunction="3way_32" toJunction="3way_29"/>