<routes xmlns:xsi="http://www.w3.org/2001/XMLSchema-instance" xsi:noNamespaceSchemaLocation="http://sumo.dlr.de/xsd/routes_file.xsd">
<trip id="0" depart="0.0" fromJunction="4way_7" toJunction="3way_5"/>
<trip id="1" depart="0.4444" fromJunction="3way_5" toJunction="4way_6"/>
<trip id="2" depart="0.8888" fromJunction="4way_11" toJunction="3way_21"/>
<trip id="3" depart="1.3332000000000002" fromJunction="4way_8" toJunction="3way_15"/>
<trip id="4" depart="1.7776" fromJunction="3way_21" toJunction="4way_18"/>
<trip id="5" depart="2.222" fromJunction="3way_5" toJunction="4way_12"/>
<trip id="6" depart="2.6664000000000003" fromJunction="4way_13" toJunction="3way_5"/>
<trip id="7" depart="3.1108000000000002" fromJunction="4way_17" toJunction="3way_1"/>
<trip id="8" depart="3.5552" fromJunction="4way_8" toJunction="4way_12"/>
<trip id="9" depart="3.9996" fromJunction="4way_12" toJunction="4way_18"/>
<trip id="10" depart="4.444" fromJunction="4way_12" toJunction="3way_15"/>
<trip id="11" depart="4.8884" fromJunction="4way_11" toJunction="3way_3"/>
<trip id="12" depart="5.332800000000001" fromJunction="4way_13" toJunction="3way_9"/>
<trip id="13" depart="5.777200000000001" fromJunction="3way_21" toJunction="3way_10"/>
<trip id="14" depart="6.2216000000000005" fromJunction="4way_12" toJunction="3way_19"/>
<trip id="15" depart="6.666" fromJunction="3way_5" toJunction="3way_15"/>
<trip id="16" depart="7.1104" fromJunction="4way_6" toJunction="3way_1"/>
<trip id="17" depart="7.5548" fromJunction="4way_16" toJunction="4way_13"/>
<trip id="18" depart="7.9992" fromJunction="3way_15" toJunction="3way_22"/>
<trip id="19" depart="8.4436" fromJunction="3way_2" toJunction="4way_16"/>
<trip id="20" depart="8.888" fromJunction="3way_3" toJunction="3way_14"/>
<trip id="21" depart="9.3324" fromJunction="3way_22" toJunction="3way_23"/>
<trip id="22" depart="9.7768" fromJunction="3way_15" toJunction="3way_5"/>
<trip id="23" depart="10.2212" fromJunction="3way_3" toJunction="4way_18"/>
<trip id="24" depart="10.665600000000001" fromJunction="3way_9" toJunction="3way_14"/>
<trip id="25" depart="11.110000000000001" fromJunction="3way_19" toJunction="4way_11"/>
<trip id="26" depart="11.554400000000001" fromJunction="3way_19" toJunction="3way_15"/>
<trip id="27" depart="11.998800000000001" fromJunction="3way_3" toJunction="3way_9"/>
<trip id="28" depart="12.443200000000001" fromJunction="3way_3" toJunction="4way_11"/>
<trip id="29" depart="12.8876" fromJunction="3way_22" toJunction="3way_14"/>
<trip id="30" depart="13.332" fromJunction="3way_3" toJunction="4way_17"/>
<trip id="31" depart="13.7764" fromJunction="3way_3" toJunction="4way_17"/>
<trip id="32" depart="14.2208" fromJunction="3way_15" toJunction="4way_18"/>
<trip id="33" depart="14.6652" fromJunction="4way_6" toJunction="4way_18"/>
<trip id="34" depart="15.1096" fromJunction="3way_1" toJunction="4way_7"/>
<trip id="35" depart="15.554" fromJunction="3way_3" toJunction="3way_19"/>
<trip id="36" depart="15.9984" fromJunction="3way_3" toJunction="3way_23"/>
<trip id="37" depart="16.442800000000002" fromJunction="3way_21" toJunction="3way_23"/>
<trip id="38" depart="16.8872" fromJunction="4way_16" toJunction="3way_2"/>
<trip id="39" depart="17.3316" fromJunction="3way_19" toJunction="3way_5"/>
<trip id="40" depart="17.776" fromJunction="3way_2" toJunction="3way_10"/>
<trip id="41" depart="18.2204" fromJunction="4way_13" toJunction="4way_6"/>
<trip id="42" depart="18.6648" fromJunction="4way_16" toJunction="3way_23"/>
<trip id="43" depart="19.1092" fromJunction="4way_7" toJunction="3way_3"/>
<trip id="44" depart="19.5536" fromJunction="3way_9" toJunction="3way_23"/>
<trip id="45" depart="19.998" fromJunction="3way_1" toJunction="4way_6"/>
<trip id="46" depart="20.4424" fromJunction="3way_1" toJunction="4way_17"/>
<trip id="47" depart="20.8868" fromJunction="3way_19" toJunction="4way_16"/>
<trip id="48" depart="21.331200000000003" fromJunction="4way_18" toJunction="4way_7"/>
<trip id="49" depart="21.7756" fromJunction="4way_6" toJunction="3way_19"/>
<trip id="50" depart="22.220000000000002" fromJunction="4way_18" toJunction="3way_14"/>
<trip id="51" depart="22.6644" fromJunction="4way_17" toJunction="3way_15"/>
<trip id="52" depart="23.108800000000002" fromJunction="3way_23" toJunction="4way_16"/>
<trip id="53" depart="23.5532" fromJunction="3way_21" toJunction="4way_17"/>
<trip id="54" depart="23.997600000000002" fromJunction="4way_6" toJunction="4way_8"/>
<trip id="55" depart="24.442" fromJunction="4way_16" toJunction="4way_8"/>
<trip id="56" depart="24.886400000000002" fromJunction="3way_10" toJunction="4way_7"/>
<trip id="57" depart="25.3308" fromJunction="4way_11" toJunction="4way_18"/>
<trip id="58" depart="25.7752" fromJunction="4way_6" toJunction="3way_21"/>
<trip id="59" depart="26.2196" fromJunction="3way_23" toJunction="3way_1"/>
<trip id="60" depart="26.664" fromJunction="3way_23" toJunction="4way_11"/>
<trip id="61" depart="27.1084" fromJunction="3way_15" toJunction="4way_6"/>
<trip id="62" depart="27.5528" fromJunction="3way_23" toJunction="3way_3"/>
<trip id="63" depart="27.9972" fromJunction="4way_6" toJunction="3way_5"/>
<trip id="64" depart="28.4416" fromJunction="4way_11" toJunction="4way_6"/>
<trip id="65" depart="28.886000000000003" fromJunction="3way_15" toJunction="4way_11"/>
<trip id="66" depart="29.3304" fromJunction="3way_22" toJunction="4way_8"/>
<trip id="67" depart="29.774800000000003" fromJunction="4way_8" toJunction="3way_15"/>
<trip id="68" depart="30.2192" fromJunction="4way_16" toJunction="4way_12"/>
<trip id="69" depart="30.663600000000002" fromJunction="4way_13" toJunction="3way_3"/>
<trip id="70" depart="31.108" fromJunction="4way_18" toJunction="4way_16"/>
<trip id="71" depart="31.552400000000002" fromJunction="4way_8" toJunction="3way_9"/>
<trip id="72" depart="31.9968" fromJunction="4way_6" toJunction="3way_9"/>
<trip id="73" depart="32.4412" fromJunction="4way_17" toJunction="3way_3"/>
<trip id="74" depart="32.885600000000004" fromJunction="3way_5" toJunction="4way_12"/>
<trip id="75" depart="33.33" fromJunction="3way_2" toJunction="3way_21"/>
<trip id="76" depart="33.7744" fromJunction="3way_15" toJunction="4way_16"/>
<trip id="77" depart="34.2188" fromJunction="4way_8" toJunction="4way_7"/>
<trip id="78" depart="34.6632" fromJunction="4way_17" toJunction="4way_18"/>
<trip id="79" depart="35.1076" fromJunction="3way_22" toJunction="3way_1"/>
<trip id="80" depart="35.552" fromJunction="3way_9" toJunction="4way_7"/>
<trip id="81" depart="35.9964" fromJunction="3way_2" toJunction="3way_10"/>
<trip id="82" depart="36.4408" fromJunction="3way_1" toJunction="3way_14"/>
<trip id="83" depart="36.885200000000005" fromJunction="3way_14" toJunction="4way_12"/>
<trip id="84" depart="37.3296" fromJunction="4way_13" toJunction="3way_22"/>
<trip id="85" depart="37.774" fromJunction="3way_1" toJunction="4way_16"/>
<trip id="86" depart="38.2184" fromJunction="4way_11" toJunction="3way_9"/>
<trip id="87" depart="38.662800000000004" fromJunction="3way_14" toJunction="4way_6"/>
<trip id="88" depart="39.1072" fromJunction="4way_6" toJunction="4way_13"/>
<trip id="89" depart="39.5516" fromJunction="4way_6" toJunction="3way_5"/>
<trip id="90" depart="39.996" fromJunction="3way_23" toJunction="4way_7"/>
<trip id="91" depart="40.440400000000004" fromJunction="3way_14" toJunction="3way_21"/>
<trip id="92" depart="40.8848" fromJunction="4way_13" toJunction="3way_9"/>
<trip id="93" depart="41.3292" fromJunction="3way_10" toJunction="4way_7"/>
<trip id="94" depart="41.7736" fromJunction="3way_19" toJunction="3way_14"/>
<trip id="95" depart="42.218" fromJunction="3way_15" toJunction="3way_2"/>
<trip id="96" depart="42.662400000000005" fromJunction="4way_16" toJunction="3way_23"/>
<trip id="97" depart="43.1068" fromJunction="3way_9" toJunction="3way_22"/>
<trip id="98" depart="43.5512" fromJunction="3way_2" toJunction="3way_1"/>
<trip id="99" depart="43.9956" fromJunction="3way_15" toJunction="4way_16"/>
<trip id="100" depart="44.440000000000005" fromJunction="4way_8" toJunction="3way_5"/>
<trip id="101" depart="44.8844" fromJunction="3way_14" toJunction="4way_18"/>
<trip id="102" depart="45.3288" fromJunction="3way_19" toJunction="4way_11"/>
<trip id="103" depart="45.7732" fromJunction="4way_7" toJunction="3way_1"/>
<trip id="104" depart="46.217600000000004" fromJunction="3way_21" toJunction="3way_23"/>
<trip id="105" depart="46.662" fromJunction="4way_17" toJunction="4way_6"/>
<trip id="106" depart="47.1064" fromJunction="4way_8" toJunction="4way_11"/>
<trip id="107" depart="47.5508" fromJunction="4way_12" toJunction="3way_19"/>
<trip id="108" depart="47.995200000000004" fromJunction="4way_18" toJunction="3way_9"/>
<trip id="109" depart="48.4396" fromJunction="3way_14" toJunction="4way_16"/>
<trip id="110" depart="48.884" fromJunction="4way_7" toJunction="4way_13"/>
<trip id="111" depart="49.3284" fromJunction="3way_14" toJunction="3way_19"/>
<trip id="112" depart="49.772800000000004" fromJunction="3way_1" toJunction="3way_10"/>
<trip id="113" depart="50.217200000000005" fromJunction="3way_21" toJunction="3way_14"/>
<trip id="114" depart="50.6616" fromJunction="3way_15" toJunction="3way_22"/>
<trip id="115" depart="51.106" fromJunction="4way_6" toJunction="3way_19"/>
<trip id="116" depart="51.5504" fromJunction="3way_3" toJunction="4way_8"/>
<trip id="117" depart="51.994800000000005" fromJunction="3way_3" toJunction="3way_10"/>
<trip id="118" depart="52.4392" fromJunction="3way_21" toJunction="4way_7"/>
<trip id="119" depart="52.8836" fromJunction="3way_9" toJunction="3way_5"/>
<trip id="120" depart="53.328" fromJunction="3way_10" toJunction="3way_9"/>
<trip id="121" depart="53.772400000000005" fromJunction="4way_13" toJunction="3way_22"/>
<trip id="122" depart="54.2168" fromJunction="4way_7" toJunction="4way_12"/>
<trip id="123" depart="54.6612" fromJunction="3way_2" toJunction="4way_8"/>
<trip id="124" depart="55.1056" fromJunction="4way_6" toJunction="3way_5"/>
<trip id="125" depart="55.550000000000004" fromJunction="3way_23" toJunction="4way_18"/>
<trip id="126" depart="55.9944" fromJunction="3way_3" toJunction="3way_19"/>
<trip id="127" depart="56.4388" fromJunction="4way_13" toJunction="3way_1"/>
<trip id="128" depart="56.8832" fromJunction="4way_12" toJunction="4way_16"/>
<trip id="129" depart="57.327600000000004" fromJunction="4way_6" toJunction="3way_19"/>
<trip id="130" depart="57.772000000000006" fromJunction="3way_10" toJunction="3way_2"/>
<trip id="131" depart="58.2164" fromJunction="4way_8" toJunction="4way_18"/>
<trip id="132" depart="58.6608" fromJunction="4way_18" toJunction="3way_22"/>
<trip id="133" depart="59.1052" fromJunction="4way_13" toJunction="3way_14"/>
<trip id="134" depart="59.549600000000005" fromJunction="4way_12" toJunction="4way_13"/>
<trip id="135" depart="59.994" fromJunction="4way_8" toJunction="4way_11"/>
<trip id="136" depart="60.4384" fromJunction="4way_17" toJunction="3way_23"/>
<trip id="137" depart="60.8828" fromJunction="3way_1" toJunction="4way_6"/>
<trip id="138" depart="61.327200000000005" fromJunction="3way_9" toJunction="3way_22"/>
<trip id="139" depart="61.7716" fromJunction="3way_10" toJunction="4way_18"/>
<trip id="140" depart="62.216" fromJunction="4way_11" toJunction="3way_10"/>
<trip id="141" depart="62.6604" fromJunction="3way_3" toJunction="3way_22"/>
<trip id="142" depart="63.104800000000004" fromJunction="3way_9" toJunction="4way_17"/>
<trip id="143" depart="63.5492" fromJunction="3way_14" toJunction="3way_10"/>
<trip id="144" depart="63.9936" fromJunction="4way_8" toJunction="3way_3"/>
<trip id="145" depart="64.438" fromJunction="4way_12" toJunction="4way_13"/>
<trip id="146" depart="64.8824" fromJunction="3way_2" toJunction="3way_23"/>
<trip id="147" depart="65.3268" fromJunction="3way_14" toJunction="3way_21"/>
<trip id="148" depart="65.77120000000001" fromJunction="3way_2" toJunction="3way_3"/>
<trip id="149" depart="66.21560000000001" fromJunction="3way_1" toJunction="4way_7"/>
<trip id="150" depart="66.66" fromJunction="3way_9" toJunction="4way_12"/>
<trip id="151" depart="67.1044" fromJunction="3way_19" toJunction="4way_16"/>
<trip id="152" depart="67.5488" fromJunction="3way_5" toJunction="3way_21"/>
<trip id="153" depart="67.9932" fromJunction="4way_7" toJunction="4way_8"/>
<trip id="154" depart="68.4376" fromJunction="3way_3" toJunction="3way_19"/>
<trip id="155" depart="68.882" fromJunction="3way_23" toJunction="3way_2"/>
<trip id="156" depart="69.3264" fromJunction="3way_15" toJunction="3way_19"/>
<trip id="157" depart="69.77080000000001" fromJunction="3way_22" toJunction="3way_19"/>
<trip id="158" depart="70.2152" fromJunction="4way_12" toJunction="3way_9"/>
<trip id="159" depart="70.6596" fromJunction="4way_16" toJunction="3way_2"/>
<trip id="160" depart="71.104" fromJunction="3way_22" toJunction="3way_19"/>
<trip id="161" depart="71.5484" fromJunction="3way_19" toJunction="4way_6"/>
<trip id="162" depart="71.9928" fromJunction="3way_14" toJunction="3way_22"/>
<trip id="163" depart="72.4372" fromJunction="3way_1" toJunction="3way_15"/>
<trip id="164" depart="72.8816" fromJunction="3way_2" toJunction="4way_12"/>
<trip id="165" depart="73.32600000000001" fromJunction="3way_23" toJunction="3way_10"/>
<trip id="166" depart="73.77040000000001" fromJunction="4way_18" toJunction="4way_6"/>
<trip id="167" depart="74.2148" fromJunction="3way_1" toJunction="4way_11"/>
<trip id="168" depart="74.6592" fromJunction="3way_10" toJunction="3way_15"/>
<trip id="169" depart="75.1036" fromJunction="4way_16" toJunction="3way_5"/>
<trip id="170" depart="75.548" fromJunction="3way_3" toJunction="3way_19"/>
<trip id="171" depart="75.9924" fromJunction="4way_18" toJunction="3way_21"/>
<trip id="172" depart="76.4368" fromJunction="4way_8" toJunction="3way_9"/>
<trip id="173" depart="76.8812" fromJunction="3way_15" toJunction="3way_5"/>
<trip id="174" depart="77.32560000000001" fromJunction="3way_15" toJunction="4way_8"/>
<trip id="175" depart="77.77" fromJunction="3way_21" toJunction="4way_7"/>
<trip id="176" depart="78.2144" fromJunction="4way_16" toJunction="4way_8"/>
<trip id="177" depart="78.6588" fromJunction="3way_23" toJunction="4way_16"/>
<trip id="178" depart="79.1032" fromJunction="4way_11" toJunction="4way_7"/>
<trip id="179" depart="79.5476" fromJunction="3way_9" toJunction="3way_19"/>
<trip id="180" depart="79.992" fromJunction="4way_18" toJunction="4way_12"/>
<trip id="181" depart="80.4364" fromJunction="4way_6" toJunction="3way_15"/>
<trip id="182" depart="80.88080000000001" fromJunction="3way_15" toJunction="4way_8"/>
<trip id="183" depart="81.32520000000001" fromJunction="4way_6" toJunction="4way_13"/>
<trip id="184" depart="81.7696" fromJunction="4way_13" toJunction="4way_17"/>
<trip id="185" depart="82.214" fromJunction="3way_9" toJunction="4way_17"/>
<trip id="186" depart="82.6584" fromJunction="3way_21" toJunction="4way_11"/>
<trip id="187" depart="83.1028" fromJunction="3way_21" toJunction="3way_2"/>
<trip id="188" depart="83.5472" fromJunction="4way_17" toJunction="3way_19"/>
<trip id="189" depart="83.9916" fromJunction="4way_18" toJunction="3way_1"/>
<trip id="190" depart="84.436" fromJunction="3way_9" toJunction="3way_1"/>
<trip id="191" depart="84.88040000000001" fromJunction="4way_13" toJunction="3way_21"/>
<trip id="192" depart="85.32480000000001" fromJunction="4way_13" toJunction="3way_3"/>
<trip id="193" depart="85.7692" fromJunction="3way_15" toJunction="4way_8"/>
<trip id="194" depart="86.2136" fromJunction="3way_14" toJunction="3way_23"/>
<trip id="195" depart="86.658" fromJunction="3way_1" toJunction="4way_6"/>
<trip id="196" depart="87.1024" fromJunction="3way_15" toJunction="3way_1"/>
<trip id="197" depart="87.5468" fromJunction="3way_19" toJunction="3way_2"/>
<trip id="198" depart="87.9912" fromJunction="3way_19" toJunction="3way_14"/>
<trip id="199" depart="88.43560000000001" fromJunction="3way_1" toJunction="3way_3"/>
<trip id="200" depart="88.88000000000001" fromJunction="4way_6" toJunction="3way_3"/>
<trip id="201" depart="89.3244" fromJunction="3way_9" toJunction="3way_21"/>
<trip id="202" depart="89.7688" fromJunction="3way_10" toJunction="4way_11"/>
<trip id="203" depart="90.2132" fromJunction="3way_2" toJunction="4way_18"/>
<trip id="204" depart="90.6576" fromJunction="3way_23" toJunction="4way_12"/>
<trip id="205" depart="91.102" fromJunction="4way_11" toJunction="3way_19"/>
<trip id="206" depart="91.5464" fromJunction="4way_11" toJunction="3way_19"/>
<trip id="207" depart="91.99080000000001" fromJunction="3way_21" toJunction="3way_10"/>
<trip id="208" depart="92.43520000000001" fromJunction="3way_23" toJunction="3way_5"/>
<trip id="209" depart="92.87960000000001" fromJunction="3way_21" toJunction="4way_16"/>
<trip id="210" depart="93.324" fromJunction="4way_17" toJunction="3way_22"/>
<trip id="211" depart="93.7684" fromJunction="3way_1" toJunction="4way_13"/>
<trip id="212" depart="94.2128" fromJunction="3way_22" toJunction="3way_14"/>
<trip id="213" depart="94.6572" fromJunction="4way_18" toJunction="4way_17"/>
<trip id="214" depart="95.1016" fromJunction="4way_13" toJunction="4way_18"/>
<trip id="215" depart="95.546" fromJunction="4way_18" toJunction="3way_23"/>
<trip id="216" depart="95.99040000000001" fromJunction="3way_3" toJunction="3way_19"/>
<trip id="217" depart="96.43480000000001" fromJunction="3way_14" toJunction="4way_13"/>
<trip id="218" depart="96.8792" fromJunction="3way_2" toJunction="4way_16"/>
<trip id="219" depart="97.3236" fromJunction="4way_8" toJunction="4way_7"/>
<trip id="220" depart="97.768" fromJunction="3way_22" toJunction="3way_19"/>
<trip id="221" depart="98.2124" fromJunction="4way_7" toJunction="3way_22"/>
<trip id="222" depart="98.6568" fromJunction="3way_9" toJunction="3way_14"/>
<trip id="223" depart="99.1012" fromJunction="3way_23" toJunction="3way_15"/>
<trip id="224" depart="99.54560000000001" fromJunction="3way_14" toJunction="4way_17"/>
<trip id="225" depart="99.99000000000001" fromJunction="4way_13" toJunction="3way_10"/>
<trip id="226" depart="100.43440000000001" fromJunction="4way_8" toJunction="4way_11"/>
<trip id="227" depart="100.8788" fromJunction="4way_7" toJunction="4way_13"/>
<trip id="228" depart="101.3232" fromJunction="4way_18" toJunction="4way_16"/>
<trip id="229" depart="101.7676" fromJunction="3way_15" toJunction="4way_18"/>
<trip id="230" depart="102.212" fromJunction="3way_23" toJunction="3way_2"/>
<trip id="231" depart="102.6564" fromJunction="3way_21" toJunction="3way_9"/>
<trip id="232" depart="103.1008" fromJunction="4way_6" toJunction="3way_3"/>
<trip id="233" depart="103.54520000000001" fromJunction="4way_8" toJunction="3way_21"/>
<trip id="234" depart="103.98960000000001" fromJunction="3way_5" toJunction="4way_18"/>
<trip id="235" depart="104.434" fromJunction="4way_6" toJunction="3way_19"/>
<trip id="236" depart="104.8784" fromJunction="3way_21" toJunction="4way_8"/>
<trip id="237" depart="105.3228" fromJunction="3way_19" toJunction="3way_5"/>
<trip id="238" depart="105.7672" fromJunction="3way_21" toJunction="3way_15"/>
<trip id="239" depart="106.2116" fromJunction="3way_10" toJunction="3way_19"/>
<trip id="240" depart="106.656" fromJunction="3way_22" toJunction="3way_23"/>
<trip id="241" depart="107.10040000000001" fromJunction="4way_7" toJunction="3way_5"/>
<trip id="242" depart="107.54480000000001" fromJunction="4way_13" toJunction="3way_22"/>
<trip id="243" depart="107.98920000000001" fromJunction="3way_2" toJunction="4way_8"/>
<trip id="244" depart="108.4336" fromJunction="3way_15" toJunction="3way_19"/>
<trip id="245" depart="108.878" fromJunction="3way_22" toJunction="3way_3"/>
<trip id="246" depart="109.3224" fromJunction="4way_16" toJunction="4way_7"/>
<trip id="247" depart="109.7668" fromJunction="4way_16" toJunction="4way_11"/>
<trip id="248" depart="110.2112" fromJunction="3way_22" toJunction="3way_14"/>
<trip id="249" depart="110.6556" fromJunction="4way_8" toJunction="4way_16"/>
<trip id="250" depart="111.10000000000001" fromJunction="3way_19" toJunction="3way_5"/>
<trip id="251" depart="111.54440000000001" fromJunction="4way_16" toJunction="3way_1"/>
<trip id="252" depart="111.9888" fromJunction="3way_22" toJunction="3way_1"/>
<trip id="253" depart="112.4332" fromJunction="4way_13" toJunction="3way_5"/>
<trip id="254" depart="112.8776" fromJunction="3way_21" toJunction="3way_2"/>
<trip id="255" depart="113.322" fromJunction="3way_22" toJunction="3way_1"/>
<trip id="256" depart="113.7664" fromJunction="3way_19" toJunction="4way_11"/>
<trip id="257" depart="114.2108" fromJunction="3way_3" toJunction="3way_14"/>
<trip id="258" depart="114.65520000000001" fromJunction="4way_16" toJunction="4way_6"/>
<trip id="259" depart="115.09960000000001" fromJunction="4way_13" toJunction="4way_16"/>
<trip id="260" depart="115.54400000000001" fromJunction="4way_11" toJunction="3way_1"/>
<trip id="261" depart="115.9884" fromJunction="3way_1" toJunction="4way_18"/>
<trip id="262" depart="116.4328" fromJunction="4way_17" toJunction="4way_16"/>
<trip id="263" depart="116.8772" fromJunction="3way_22" toJunction="3way_10"/>
<trip id="264" depart="117.3216" fromJunction="3way_3" toJunction="4way_12"/>
<trip id="265" depart="117.766" fromJunction="3way_10" toJunction="3way_15"/>
<trip id="266" depart="118.2104" fromJunction="3way_2" toJunction="4way_16"/>
<trip id="267" depart="118.65480000000001" fromJunction="3way_21" toJunction="3way_14"/>
<trip id="268" depart="119.09920000000001" fromJunction="4way_8" toJunction="4way_11"/>
<trip id="269" depart="119.5436" fromJunction="3way_3" toJunction="4way_6"/>
<trip id="270" depart="119.988" fromJunction="4way_8" toJunction="4way_18"/>
<trip id="271" depart="120.4324" fromJunction="4way_13" toJunction="3way_10"/>
<trip id="272" depart="120.8768" fromJunction="4way_13" toJunction="3way_5"/>
<trip id="273" depart="121.3212" fromJunction="4way_18" toJunction="4way_17"/>
<trip id="274" depart="121.7656" fromJunction="3way_1" toJunction="4way_13"/>
<trip id="275" depart="122.21000000000001" fromJunction="3way_21" toJunction="3way_9"/>
<trip id="276" depart="122.65440000000001" fromJunction="3way_23" toJunction="4way_13"/>
<trip id="277" depart="123.09880000000001" fromJunction="4way_8" toJunction="3way_9"/>
<trip id="278" depart="123.5432" fromJunction="4way_13" toJunction="3way_15"/>
<trip id="279" depart="123.9876" fromJunction="4way_11" toJunction="3way_9"/>
<trip id="280" depart="124.432" fromJunction="3way_2" toJunction="3way_15"/>
<trip id="281" depart="124.8764" fromJunction="3way_19" toJunction="4way_16"/>
<trip id="282" depart="125.3208" fromJunction="3way_2" toJunction="3way_1"/>
<trip id="283" depart="125.76520000000001" fromJunction="4way_13" toJunction="3way_2"/>
<trip id="284" depart="126.20960000000001" fromJunction="4way_8" toJunction="4way_7"/>
<trip id="285" depart="126.65400000000001" fromJunction="3way_5" toJunction="4way_16"/>
<trip id="286" depart="127.0984" fromJunction="4way_18" toJunction="3way_23"/>
<trip id="287" depart="127.5428" fromJunction="3way_15" toJunction="3way_22"/>
<trip id="288" depart="127.9872" fromJunction="4way_18" toJunction="3way_22"/>
<trip id="289" depart="128.4316" fromJunction="3way_23" toJunction="3way_9"/>
<trip id="290" depart="128.876" fromJunction="3way_2" toJunction="4way_16"/>
<trip id="291" depart="129.3204" fromJunction="3way_10" toJunction="4way_6"/>
<trip id="292" depart="129.7648" fromJunction="3way_22" toJunction="3way_10"/>
<trip id="293" depart="130.2092" fromJunction="3way_22" toJunction="3way_15"/>
<trip id="294" depart="130.6536" fromJunction="3way_3" toJunction="4way_18"/>
<trip id="295" depart="131.098" fromJunction="3way_22" toJunction="3way_3"/>
<trip id="296" depart="131.54240000000001" fromJunction="4way_11" toJunction="4way_6"/>
<trip id="297" depart="131.98680000000002" fromJunction="4way_18" toJunction="3way_21"/>
<trip id="298" depart="132.43120000000002" fromJunction="4way_7" toJunction="3way_22"/>
<trip id="299" depart="132.8756" fromJunction="4way_17" toJunction="4way_11"/>
<trip id="300" depart="133.32" fromJunction="4way_8" toJunction="4way_18"/>
<trip id="301" depart="133.7644" fromJunction="4way_16" toJunction="4way_12"/>
<trip id="302" depart="134.2088" fromJunction="3way_9" toJunction="3way_22"/>
<trip id="303" depart="134.6532" fromJunction="3way_19" toJunction="3way_2"/>
<trip id="304" depart="135.0976" fromJunction="3way_10" toJunction="3way_15"/>
<trip id="305" depart="135.542" fromJunction="4way_18" toJunction="4way_12"/>
<trip id="306" depart="135.9864" fromJunction="4way_7" toJunction="4way_6"/>
<trip id="307" depart="136.4308" fromJunction="4way_13" toJunction="4way_17"/>
<trip id="308" depart="136.8752" fromJunction="3way_21" toJunction="4way_18"/>
<trip id="309" depart="137.3196" fromJunction="3way_9" toJunction="3way_22"/>
<trip id="310" depart="137.764" fromJunction="4way_11" toJunction="4way_16"/>
<trip id="311" depart="138.2084" fromJunction="3way_3" toJunction="4way_8"/>
<trip id="312" depart="138.6528" fromJunction="4way_6" toJunction="3way_10"/>
<trip id="313" depart="139.09720000000002" fromJunction="3way_9" toJunction="3way_19"/>
<trip id="314" depart="139.54160000000002" fromJunction="3way_2" toJunction="4way_8"/>
<trip id="315" depart="139.98600000000002" fromJunction="3way_3" toJunction="3way_15"/>
<trip id="316" depart="140.4304" fromJunction="4way_18" toJunction="3way_15"/>
<trip id="317" depart="140.8748" fromJunction="4way_17" toJunction="3way_21"/>
<trip id="318" depart="141.3192" fromJunction="3way_19" toJunction="3way_3"/>
<trip id="319" depart="141.7636" fromJunction="3way_22" toJunction="4way_16"/>
<trip id="320" depart="142.208" fromJunction="4way_11" toJunction="4way_16"/>
<trip id="321" depart="142.6524" fromJunction="3way_15" toJunction="3way_21"/>
<trip id="322" depart="143.0968" fromJunction="3way_2" toJunction="4way_6"/>
<trip id="323" depart="143.5412" fromJunction="4way_11" toJunction="4way_17"/>
<trip id="324" depart="143.9856" fromJunction="3way_5" toJunction="4way_7"/>
<trip id="325" depart="144.43" fromJunction="3way_21" toJunction="3way_3"/>
<trip id="326" depart="144.8744" fromJunction="3way_23" toJunction="3way_21"/>
<trip id="327" depart="145.3188" fromJunction="4way_7" toJunction="3way_1"/>
<trip id="328" depart="145.7632" fromJunction="4way_6" toJunction="3way_3"/>
<trip id="329" depart="146.2076" fromJunction="4way_11" toJunction="4way_16"/>
<trip id="330" depart="146.65200000000002" fromJunction="3way_3" toJunction="4way_18"/>
<trip id="331" depart="147.09640000000002" fromJunction="3way_1" toJunction="4way_8"/>
<trip id="332" depart="147.54080000000002" fromJunction="3way_21" toJunction="3way_5"/>
<trip id="333" depart="147.9852" fromJunction="3way_22" toJunction="3way_5"/>
<trip id="334" depart="148.4296" fromJunction="3way_1" toJunction="3way_14"/>
<trip id="335" depart="148.874" fromJunction="4way_17" toJunction="3way_10"/>
<trip id="336" depart="149.3184" fromJunction="3way_14" toJunction="3way_22"/>
<trip id="337" depart="149.7628" fromJunction="3way_3" toJunction="3way_14"/>
<trip id="338" depart="150.2072" fromJunction="3way_2" toJunction="3way_19"/>
<trip id="339" depart="150.6516" fromJunction="4way_17" toJunction="3way_2"/>
<trip id="340" depart="151.096" fromJunction="3way_5" toJunction="3way_9"/>
<trip id="341" depart="151.5404" fromJunction="3way_15" toJunction="4way_12"/>
<trip id="342" depart="151.9848" fromJunction="3way_14" toJunction="3way_9"/>
<trip id="343" depart="152.4292" fromJunction="3way_5" toJunction="3way_15"/>
<trip id="344" depart="152.8736" fromJunction="4way_12" toJunction="3way_22"/>
<trip id="345" depart="153.318" fromJunction="4way_13" toJunction="4way_7"/>
<trip id="346" depart="153.7624" fromJunction="4way_8" toJunction="3way_1"/>
<trip id="347" depart="154.20680000000002" fromJunction="4way_8" toJunction="3way_21"/>
<trip id="348" depart="154.65120000000002" fromJunction="4way_18" toJunction="4way_16"/>
<trip id="349" depart="155.09560000000002" fromJunction="3way_22" toJunction="4way_7"/>
<trip id="350" depart="155.54" fromJunction="3way_22" toJunction="3way_10"/>
<trip id="351" depart="155.9844" fromJunction="3way_19" toJunction="3way_22"/>
<trip id="352" depart="156.4288" fromJunction="4way_16" toJunction="3way_10"/>
<trip id="353" depart="156.8732" fromJunction="3way_5" toJunction="3way_19"/>
<trip id="354" depart="157.3176" fromJunction="3way_9" toJunction="3way_3"/>
<trip id="355" depart="157.762" fromJunction="4way_18" toJunction="3way_1"/>
<trip id="356" depart="158.2064" fromJunction="3way_9" toJunction="3way_1"/>
<trip id="357" depart="158.6508" fromJunction="3way_2" toJunction="4way_6"/>
<trip id="358" depart="159.0952" fromJunction="4way_7" toJunction="4way_8"/>
<trip id="359" depart="159.5396" fromJunction="3way_10" toJunction="4way_18"/>
<trip id="360" depart="159.984" fromJunction="3way_5" toJunction="3way_23"/>
<trip id="361" depart="160.4284" fromJunction="3way_10" toJunction="4way_13"/>
<trip id="362" depart="160.8728" fromJunction="4way_8" toJunction="3way_19"/>
<trip id="363" depart="161.3172" fromJunction="3way_1" toJunction="3way_22"/>
<trip id="364" depart="161.76160000000002" fromJunction="3way_23" toJunction="3way_19"/>
<trip id="365" depart="162.20600000000002" fromJunction="3way_15" toJunction="4way_8"/>
<trip id="366" depart="162.65040000000002" fromJunction="3way_22" toJunction="3way_15"/>
<trip id="367" depart="163.0948" fromJunction="4way_13" toJunction="4way_8"/>
<trip id="368" depart="163.5392" fromJunction="3way_22" toJunction="4way_18"/>
<trip id="369" depart="163.9836" fromJunction="4way_12" toJunction="4way_18"/>
<trip id="370" depart="164.428" fromJunction="3way_19" toJunction="4way_16"/>
<trip id="371" depart="164.8724" fromJunction="3way_9" toJunction="3way_14"/>
<trip id="372" depart="165.3168" fromJunction="3way_23" toJunction="4way_13"/>
<trip id="373" depart="165.7612" fromJunction="3way_10" toJunction="3way_15"/>