<routes xmlns:xsi="http://www.w3.org/2001/XMLSchema-instance" xsi:noNamespaceSchemaLocation="http://sumo.dlr.de/xsd/routes_file.xsd">
<trip id="0" depart="0.0" fromJunction="4way_292" toJunction="4way_49"/>
<trip id="1" depart="0.25" fromJunction="4way_368" toJunction="4way_110"/>
<trip id="2" depart="0.5" fromJunction="4way_91" toJunction="4way_126"/>
<trip id="3" depart="0.75" fromJunction="4way_256" toJunction="4way_246"/>
<trip id="4" depart="1.0" fromJunction="4way_165" toJunction="4way_98"/>
<trip id="5" depart="1.25" fromJunction="4way_248" toJunction="4way_174"/>
<trip id="6" depart="1.5" fromJunction="4way_157" toJunction="4way_189"/>
<trip id="7" depart="1.75" fromJunction="3way_359" toJunction="3way_239"/>
<trip id="8" depart="2.0" fromJunction="4way_135" toJunction="3way_9"/>
<trip id="9" depart="2.25" fromJunction="4way_76" toJunction="4way_74"/>
<trip id="10" depart="2.5" fromJunction="4way_234" toJunction="4way_218"/>
<trip id="11" depart="2.75" fromJunction="4way_94" toJunction="4way_67"/>
<trip id="12" depart="3.0" fromJunction="4way_51" toJunction="3way_388"/>
<trip id="13" depart="3.25" fromJunction="4way_317" toJunction="3way_320"/>
<trip id="14" depart="3.5" fromJunction="4way_66" toJunction="4way_188"/>
<trip id="15" depart="3.75" fromJunction="4way_34" toJunction="4way_302"/>
<trip id="16" depart="4.0" fromJunction="4way_209" toJunction="4way_27"/>
<trip id="17" depart="4.25" fromJunction="4way_230" toJunction="3way_8"/>
<trip id="18" depart="4.5" fromJunction="4way_230" toJunction="4way_190"/>
<trip id="19" depart="4.75" fromJunction="4way_32" toJunction="4way_297"/>
<trip id="20" depart="5.0" fromJunction="4way_246" toJunction="4way_344"/>
<trip id="21" depart="5.25" fromJunction="3way_139" toJunction="4way_152"/>
<trip id="22" depart="5.5" fromJunction="4way_291" toJunction="4way_271"/>
<trip id="23" depart="5.75" fromJunction="3way_383" toJunction="4way_241"/>
<trip id="24" depart="6.0" fromJunction="4way_25" toJunction="4way_343"/>
<trip id="25" depart="6.25" fromJunction="4way_246" toJunction="4way_209"/>
<trip id="26" depart="6.5" fromJunction="3way_394" toJunction="4way_298"/>
<trip id="27" depart="6.75" fromJunction="3way_180" toJunction="4way_221"/>
<trip id="28" depart="7.0" fromJunction="4way_222" toJunction="4way_151"/>
<trip id="29" depart="7.25" fromJunction="4way_142" toJunction="4way_107"/>
<trip id="30" depart="7.5" fromJunction="3way_391" toJunction="3way_200"/>
<trip id="31" depart="7.75" fromJunction="3way_360" toJunction="4way_171"/>
<trip id="32" depart="8.0" fromJunction="4way_65" toJunction="4way_121"/>
<trip id="33" depart="8.25" fromJunction="3way_396" toJunction="4way_55"/>
<trip id="34" depart="8.5" fromJunction="3way_396" toJunction="4way_175"/>
<trip id="35" depart="8.75" fromJunction="4way_127" toJunction="4way_198"/>
<trip id="36" depart="9.0" fromJunction="4way_130" toJunction="4way_198"/>
<trip id="37" depart="9.25" fromJunction="3way_16" toJunction="4way_113"/>
<trip id="38" depart="9.5" fromJunction="3way_387" toJunction="4way_83"/>
<trip id="39" depart="9.75" fromJunction="3way_387" toJunction="4way_203"/>
<trip id="40" depart="10.0" fromJunction="4way_66" toJunction="4way_363"/>
<trip id="41" depart="10.25" fromJunction="4way_112" toJunction="3way_179"/>
<trip id="42" depart="10.5" fromJunction="4way_322" toJunction="4way_189"/>
<trip id="43" depart="10.75" fromJunction="3way_397" toJunction="4way_208"/>
<trip id="44" depart="11.0" fromJunction="4way_197" toJunction="4way_269"/>
<trip id="45" depart="11.25" fromJunction="4way_271" toJunction="4way_24"/>
<trip id="46" depart="11.5" fromJunction="4way_292" toJunction="3way_382"/>
<trip id="47" depart="11.75" fromJunction="4way_21" toJunction="4way_143"/>
<trip id="48" depart="12.0" fromJunction="3way_8" toJunction="4way_349"/>
<trip id="49" depart="12.25" fromJunction="3way_2" toJunction="4way_115"/>
<trip id="50" depart="12.5" fromJunction="4way_342" toJunction="4way_351"/>
<trip id="51" depart="12.75" fromJunction="4way_98" toJunction="4way_93"/>
<trip id="52" depart="13.0" fromJunction="4way_269" toJunction="4way_182"/>
<trip id="53" depart="13.25" fromJunction="4way_229" toJunction="4way_30"/>
<trip id="54" depart="13.5" fromJunction="4way_377" toJunction="4way_341"/>
<trip id="55" depart="13.75" fromJunction="4way_255" toJunction="4way_326"/>
<trip id="56" depart="14.0" fromJunction="4way_203" toJunction="4way_152"/>
<trip id="57" depart="14.25" fromJunction="4way_285" toJunction="4way_354"/>
<trip id="58" depart="14.5" fromJunction="4way_309" toJunction="4way_156"/>
<trip id="59" depart="14.75" fromJunction="4way_112" toJunction="4way_176"/>
<trip id="60" depart="15.0" fromJunction="4way_28" toJunction="4way_372"/>
<trip id="61" depart="15.25" fromJunction="4way_91" toJunction="4way_38"/>
<trip id="62" depart="15.5" fromJunction="4way_150" toJunction="4way_126"/>
<trip id="63" depart="15.75" fromJunction="4way_243" toJunction="3way_8"/>
<trip id="64" depart="16.0" fromJunction="4way_143" toJunction="4way_211"/>
<trip id="65" depart="16.25" fromJunction="4way_166" toJunction="4way_230"/>
<trip id="66" depart="16.5" fromJunction="4way_223" toJunction="3way_381"/>
<trip id="67" depart="16.75" fromJunction="4way_369" toJunction="4way_209"/>
<trip id="68" depart="17.0" fromJunction="4way_151" toJunction="4way_249"/>
<trip id="69" depart="17.25" fromJunction="4way_186" toJunction="4way_151"/>
<trip id="70" depart="17.5" fromJunction="4way_45" toJunction="4way_296"/>
<trip id="71" depart="17.75" fromJunction="4way_256" toJunction="4way_226"/>
<trip id="72" depart="18.0" fromJunction="4way_192" toJunction="4way_294"/>
<trip id="73" depart="18.25" fromJunction="4way_117" toJunction="3way_395"/>
<trip id="74" depart="18.5" fromJunction="4way_378" toJunction="4way_272"/>
<trip id="75" depart="18.75" fromJunction="4way_56" toJunction="3way_260"/>
<trip id="76" depart="19.0" fromJunction="4way_210" toJunction="3way_160"/>
<trip id="77" depart="19.25" fromJunction="4way_255" toJunction="3way_385"/>
<trip id="78" depart="19.5" fromJunction="4way_209" toJunction="4way_294"/>
<trip id="79" depart="19.75" fromJunction="3way_219" toJunction="4way_365"/>
<trip id="80" depart="20.0" fromJunction="4way_366" toJunction="4way_152"/>
<trip id="81" depart="20.25" fromJunction="4way_56" toJunction="4way_332"/>
<trip id="82" depart="20.5" fromJunction="4way_315" toJunction="4way_198"/>
<trip id="83" depart="20.75" fromJunction="4way_344" toJunction="3way_5"/>
<trip id="84" depart="21.0" fromJunction="3way_100" toJunction="4way_53"/>
<trip id="85" depart="21.25" fromJunction="3way_99" toJunction="4way_188"/>
<trip id="86" depart="21.5" fromJunction="3way_8" toJunction="4way_161"/>
<trip id="87" depart="21.75" fromJunction="4way_341" toJunction="4way_194"/>
<trip id="88" depart="22.0" fromJunction="4way_177" toJunction="4way_224"/>
<trip id="89" depart="22.25" fromJunction="3way_13" toJunction="4way_192"/>
<trip id="90" depart="22.5" fromJunction="4way_270" toJunction="3way_140"/>
<trip id="91" depart="22.75" fromJunction="4way_102" toJunction="4way_269"/>
<trip id="92" depart="23.0" fromJunction="4way_210" toJunction="4way_217"/>
<trip id="93" depart="23.25" fromJunction="4way_369" toJunction="4way_308"/>
<trip id="94" depart="23.5" fromJunction="4way_323" toJunction="4way_53"/>
<trip id="95" depart="23.75" fromJunction="4way_241" toJunction="4way_285"/>
<trip id="96" depart="24.0" fromJunction="4way_297" toJunction="4way_41"/>
<trip id="97" depart="24.25" fromJunction="4way_307" toJunction="4way_113"/>
<trip id="98" depart="24.5" fromJunction="4way_222" toJunction="4way_22"/>
<trip id="99" depart="24.75" fromJunction="4way_226" toJunction="3way_119"/>
<trip id="100" depart="25.0" fromJunction="4way_132" toJunction="4way_323"/>
<trip id="101" depart="25.25" fromJunction="3way_20" toJunction="4way_125"/>
<trip id="102" depart="25.5" fromJunction="3way_199" toJunction="3way_10"/>
<trip id="103" depart="25.75" fromJunction="4way_366" toJunction="4way_371"/>
<trip id="104" depart="26.0" fromJunction="4way_296" toJunction="4way_308"/>
<trip id="105" depart="26.25" fromJunction="4way_281" toJunction="4way_318"/>
<trip id="106" depart="26.5" fromJunction="4way_302" toJunction="4way_231"/>
<trip id="107" depart="26.75" fromJunction="4way_273" toJunction="3way_9"/>
<trip id="108" depart="27.0" fromJunction="4way_165" toJunction="4way_24"/>
<trip id="109" depart="27.25" fromJunction="4way_135" toJunction="4way_349"/>
<trip id="110" depart="27.5" fromJunction="4way_96" toJunction="4way_330"/>
<trip id="111" depart="27.75" fromJunction="4way_234" toJunction="4way_23"/>
<trip id="112" depart="28.0" fromJunction="4way_377" toJunction="4way_41"/>
<trip id="113" depart="28.25" fromJunction="4way_281" toJunction="4way_72"/>
<trip id="114" depart="28.5" fromJunction="4way_53" toJunction="4way_337"/>
<trip id="115" depart="28.75" fromJunction="4way_261" toJunction="4way_222"/>
<trip id="116" depart="29.0" fromJunction="3way_11" toJunction="4way_168"/>
<trip id="117" depart="29.25" fromJunction="4way_146" toJunction="4way_221"/>
<trip id="118" depart="29.5" fromJunction="4way_87" toJunction="4way_105"/>
<trip id="119" depart="29.75" fromJunction="4way_349" toJunction="4way_43"/>
<trip id="120" depart="30.0" fromJunction="3way_388" toJunction="4way_36"/>
<trip id="121" depart="30.25" fromJunction="3way_382" toJunction="4way_148"/>
<trip id="122" depart="30.5" fromJunction="4way_265" toJunction="4way_292"/>
<trip id="123" depart="30.75" fromJunction="4way_21" toJunction="4way_169"/>
<trip id="124" depart="31.0" fromJunction="4way_287" toJunction="3way_300"/>
<trip id="125" depart="31.25" fromJunction="4way_277" toJunction="4way_304"/>
<trip id="126" depart="31.5" fromJunction="4way_193" toJunction="4way_333"/>
<trip id="127" depart="31.75" fromJunction="3way_339" toJunction="4way_336"/>
<trip id="128" depart="32.0" fromJunction="4way_329" toJunction="4way_69"/>
<trip id="129" depart="32.25" fromJunction="4way_163" toJunction="4way_78"/>
<trip id="130" depart="32.5" fromJunction="3way_395" toJunction="4way_122"/>
<trip id="131" depart="32.75" fromJunction="4way_197" toJunction="3way_7"/>
<trip id="132" depart="33.0" fromJunction="4way_114" toJunction="4way_291"/>
<trip id="133" depart="33.25" fromJunction="4way_349" toJunction="4way_83"/>
<trip id="134" depart="33.5" fromJunction="4way_267" toJunction="3way_179"/>
<trip id="135" depart="33.75" fromJunction="4way_136" toJunction="4way_218"/>
<trip id="136" depart="34.0" fromJunction="4way_78" toJunction="4way_164"/>
<trip id="137" depart="34.25" fromJunction="4way_337" toJunction="4way_42"/>
<trip id="138" depart="34.5" fromJunction="4way_234" toJunction="4way_277"/>
<trip id="139" depart="34.75" fromJunction="4way_116" toJunction="4way_330"/>
<trip id="140" depart="35.0" fromJunction="4way_275" toJunction="4way_183"/>
<trip id="141" depart="35.25" fromJunction="3way_6" toJunction="4way_230"/>
<trip id="142" depart="35.5" fromJunction="3way_280" toJunction="4way_244"/>
<trip id="143" depart="35.75" fromJunction="4way_207" toJunction="4way_238"/>
<trip id="144" depart="36.0" fromJunction="4way_51" toJunction="4way_347"/>
<trip id="145" depart="36.25" fromJunction="3way_360" toJunction="4way_45"/>
<trip id="146" depart="36.5" fromJunction="4way_81" toJunction="4way_55"/>
<trip id="147" depart="36.75" fromJunction="4way_341" toJunction="4way_108"/>
<trip id="148" depart="37.0" fromJunction="4way_375" toJunction="3way_396"/>
<trip id="149" depart="37.25" fromJunction="4way_78" toJunction="4way_178"/>
<trip id="150" depart="37.5" fromJunction="4way_34" toJunction="4way_356"/>
<trip id="151" depart="37.75" fromJunction="3way_319" toJunction="4way_124"/>
<trip id="152" depart="38.0" fromJunction="4way_42" toJunction="4way_365"/>
<trip id="153" depart="38.25" fromJunction="3way_99" toJunction="3way_382"/>
<trip id="154" depart="38.5" fromJunction="3way_5" toJunction="4way_372"/>
<trip id="155" depart="38.75" fromJunction="3way_280" toJunction="4way_373"/>
<trip id="156" depart="39.0" fromJunction="3way_379" toJunction="3way_299"/>
<trip id="157" depart="39.25" fromJunction="4way_162" toJunction="4way_311"/>
<trip id="158" depart="39.5" fromJunction="4way_109" toJunction="4way_106"/>
<trip id="159" depart="39.75" fromJunction="4way_372" toJunction="4way_355"/>
<trip id="160" depart="40.0" fromJunction="3way_382" toJunction="4way_362"/>
<trip id="161" depart="40.25" fromJunction="4way_243" toJunction="3way_99"/>
<trip id="162" depart="40.5" fromJunction="4way_27" toJunction="4way_282"/>
<trip id="163" depart="40.75" fromJunction="4way_132" toJunction="4way_32"/>
<trip id="164" depart="41.0" fromJunction="4way_145" toJunction="4way_103"/>
<trip id="165" depart="41.25" fromJunction="4way_154" toJunction="3way_20"/>
<trip id="166" depart="41.5" fromJunction="4way_152" toJunction="3way_119"/>
<trip id="167" depart="41.75" fromJunction="4way_54" toJunction="4way_74"/>
<trip id="168" depart="42.0" fromJunction="4way_105" toJunction="4way_262"/>
<trip id="169" depart="42.25" fromJunction="4way_23" toJunction="4way_349"/>
<trip id="170" depart="42.5" fromJunction="4way_141" toJunction="4way_65"/>
<trip id="171" depart="42.75" fromJunction="3way_18" toJunction="4way_67"/>
<trip id="172" depart="43.0" fromJunction="3way_279" toJunction="4way_234"/>
<trip id="173" depart="43.25" fromJunction="4way_283" toJunction="4way_168"/>
<trip id="174" depart="43.5" fromJunction="4way_58" toJunction="4way_269"/>
<trip id="175" depart="43.75" fromJunction="3way_15" toJunction="4way_91"/>
<trip id="176" depart="44.0" fromJunction="4way_88" toJunction="4way_186"/>
<trip id="177" depart="44.25" fromJunction="4way_371" toJunction="4way_308"/>
<trip id="178" depart="44.5" fromJunction="3way_383" toJunction="4way_43"/>
<trip id="179" depart="44.75" fromJunction="4way_38" toJunction="4way_245"/>
<trip id="180" depart="45.0" fromJunction="4way_336" toJunction="4way_61"/>
<trip id="181" depart="45.25" fromJunction="4way_27" toJunction="4way_368"/>
<trip id="182" depart="45.5" fromJunction="4way_47" toJunction="4way_176"/>
<trip id="183" depart="45.75" fromJunction="4way_305" toJunction="4way_352"/>
<trip id="184" depart="46.0" fromJunction="4way_92" toJunction="4way_356"/>
<trip id="185" depart="46.25" fromJunction="4way_84" toJunction="4way_172"/>
<trip id="186" depart="46.5" fromJunction="4way_370" toJunction="4way_253"/>
<trip id="187" depart="46.75" fromJunction="3way_180" toJunction="4way_122"/>
<trip id="188" depart="47.0" fromJunction="4way_58" toJunction="4way_214"/>
<trip id="189" depart="47.25" fromJunction="4way_30" toJunction="4way_47"/>
<trip id="190" depart="47.5" fromJunction="4way_47" toJunction="4way_335"/>
<trip id="191" depart="47.75" fromJunction="4way_249" toJunction="4way_357"/>
<trip id="192" depart="48.0" fromJunction="4way_376" toJunction="4way_55"/>
<trip id="193" depart="48.25" fromJunction="3way_180" toJunction="4way_354"/>
<trip id="194" depart="48.5" fromJunction="4way_285" toJunction="4way_330"/>
<trip id="195" depart="48.75" fromJunction="4way_126" toJunction="3way_159"/>
<trip id="196" depart="49.0" fromJunction="4way_275" toJunction="4way_262"/>
<trip id="197" depart="49.25" fromJunction="4way_58" toJunction="3way_14"/>
<trip id="198" depart="49.5" fromJunction="4way_324" toJunction="4way_304"/>
<trip id="199" depart="49.75" fromJunction="4way_41" toJunction="3way_7"/>
<trip id="200" depart="50.0" fromJunction="4way_177" toJunction="4way_305"/>
<trip id="201" depart="50.25" fromJunction="4way_317" toJunction="3way_395"/>
<trip id="202" depart="50.5" fromJunction="4way_366" toJunction="4way_76"/>
<trip id="203" depart="50.75" fromJunction="4way_62" toJunction="4way_84"/>
<trip id="204" depart="51.0" fromJunction="3way_14" toJunction="4way_210"/>
<trip id="205" depart="51.25" fromJunction="4way_166" toJunction="3way_7"/>
<trip id="206" depart="51.5" fromJunction="4way_202" toJunction="3way_199"/>
<trip id="207" depart="51.75" fromJunction="4way_222" toJunction="4way_321"/>
<trip id="208" depart="52.0" fromJunction="3way_5" toJunction="3way_383"/>
<trip id="209" depart="52.25" fromJunction="4way_230" toJunction="3way_389"/>
<trip id="210" depart="52.5" fromJunction="4way_318" toJunction="4way_178"/>
<trip id="211" depart="52.75" fromJunction="3way_160" toJunction="4way_365"/>
<trip id="212" depart="53.0" fromJunction="4way_307" toJunction="4way_31"/>
<trip id="213" depart="53.25" fromJunction="3way_179" toJunction="4way_298"/>
<trip id="214" depart="53.5" fromJunction="4way_143" toJunction="4way_114"/>
<trip id="215" depart="53.75" fromJunction="4way_231" toJunction="4way_122"/>
<trip id="216" depart="54.0" fromJunction="4way_251" toJunction="4way_162"/>
<trip id="217" depart="54.25" fromJunction="4way_126" toJunction="4way_148"/>
<trip id="218" depart="54.5" fromJunction="4way_123" toJunction="4way_89"/>
<trip id="219" depart="54.75" fromJunction="4way_66" toJunction="4way_212"/>
<trip id="220" depart="55.0" fromJunction="4way_115" toJunction="4way_344"/>
<trip id="221" depart="55.25" fromJunction="3way_39" toJunction="4way_157"/>
<trip id="222" depart="55.5" fromJunction="4way_264" toJunction="4way_62"/>
<trip id="223" depart="55.75" fromJunction="4way_278" toJunction="4way_354"/>
<trip id="224" depart="56.0" fromJunction="4way_356" toJunction="4way_138"/>
<trip id="225" depart="56.25" fromJunction="4way_318" toJunction="4way_203"/>
<trip id="226" depart="56.5" fromJunction="3way_393" toJunction="4way_182"/>
<trip id="227" depart="56.75" fromJunction="4way_62" toJunction="4way_357"/>
<trip id="228" depart="57.0" fromJunction="3way_139" toJunction="4way_92"/>
<trip id="229" depart="57.25" fromJunction="4way_176" toJunction="4way_53"/>
<trip id="230" depart="57.5" fromJunction="4way_145" toJunction="4way_362"/>
<trip id="231" depart="57.75" fromJunction="4way_193" toJunction="4way_105"/>
<trip id="232" depart="58.0" fromJunction="3way_80" toJunction="4way_102"/>
<trip id="233" depart="58.25" fromJunction="4way_263" toJunction="4way_326"/>
<trip id="234" depart="58.5" fromJunction="4way_102" toJunction="4way_195"/>
<trip id="235" depart="58.75" fromJunction="4way_297" toJunction="4way_28"/>
<trip id="236" depart="59.0" fromJunction="4way_56" toJunction="4way_370"/>
<trip id="237" depart="59.25" fromJunction="4way_213" toJunction="4way_277"/>
<trip id="238" depart="59.5" fromJunction="4way_138" toJunction="4way_172"/>
<trip id="239" depart="59.75" fromJunction="4way_346" toJunction="4way_338"/>
<trip id="240" depart="60.0" fromJunction="4way_163" toJunction="3way_239"/>
<trip id="241" depart="60.25" fromJunction="4way_86" toJunction="3way_240"/>
<trip id="242" depart="60.5" fromJunction="4way_130" toJunction="3way_383"/>
<trip id="243" depart="60.75" fromJunction="4way_276" toJunction="4way_165"/>
<trip id="244" depart="61.0" fromJunction="4way_29" toJunction="4way_138"/>
<trip id="245" depart="61.25" fromJunction="4way_30" toJunction="4way_23"/>
<trip id="246" depart="61.5" fromJunction="4way_365" toJunction="4way_296"/>
<trip id="247" depart="61.75" fromJunction="4way_362" toJunction="4way_69"/>
<trip id="248" depart="62.0" fromJunction="4way_325" toJunction="4way_27"/>
<trip id="249" depart="62.25" fromJunction="4way_68" toJunction="4way_182"/>
<trip id="250" depart="62.5" fromJunction="4way_85" toJunction="4way_303"/>
<trip id="251" depart="62.75" fromJunction="4way_213" toJunction="4way_208"/>
<trip id="252" depart="63.0" fromJunction="4way_137" toJunction="4way_144"/>
<trip id="253" depart="63.25" fromJunction="3way_59" toJunction="4way_375"/>
<trip id="254" depart="63.5" fromJunction="4way_306" toJunction="4way_222"/>
<trip id="255" depart="63.75" fromJunction="4way_244" toJunction="3way_393"/>
<trip id="256" depart="64.0" fromJunction="4way_371" toJunction="4way_133"/>
<trip id="257" depart="64.25" fromJunction="4way_252" toJunction="4way_270"/>
<trip id="258" depart="64.5" fromJunction="4way_204" toJunction="4way_201"/>
<trip id="259" depart="64.75" fromJunction="4way_156" toJunction="4way_331"/>
<trip id="260" depart="65.0" fromJunction="4way_83" toJunction="4way_368"/>
<trip id="261" depart="65.25" fromJunction="4way_252" toJunction="3way_12"/>
<trip id="262" depart="65.5" fromJunction="4way_85" toJunction="3way_4"/>
<trip id="263" depart="65.75" fromJunction="4way_137" toJunction="4way_268"/>
<trip id="264" depart="66.0" fromJunction="4way_345" toJunction="3way_379"/>
<trip id="265" depart="66.25" fromJunction="4way_204" toJunction="3way_10"/>
<trip id="266" depart="66.5" fromJunction="4way_63" toJunction="4way_270"/>
<trip id="267" depart="66.75" fromJunction="3way_389" toJunction="4way_241"/>
<trip id="268" depart="67.0" fromJunction="4way_132" toJunction="4way_269"/>
<trip id="269" depart="67.25" fromJunction="4way_337" toJunction="4way_311"/>
<trip id="270" depart="67.5" fromJunction="4way_111" toJunction="3way_2"/>
<trip id="271" depart="67.75" fromJunction="4way_369" toJunction="4way_90"/>
<trip id="272" depart="68.0" fromJunction="3way_7" toJunction="4way_98"/>
<trip id="273" depart="68.25" fromJunction="4way_354" toJunction="4way_132"/>
<trip id="274" depart="68.5" fromJunction="4way_144" toJunction="4way_88"/>
<trip id="275" depart="68.75" fromJunction="3way_396" toJunction="4way_174"/>
<trip id="276" depart="69.0" fromJunction="4way_168" toJunction="4way_286"/>
<trip id="277" depart="69.25" fromJunction="3way_379" toJunction="4way_112"/>
<trip id="278" depart="69.5" fromJunction="4way_26" toJunction="4way_22"/>
<trip id="279" depart="69.75" fromJunction="4way_216" toJunction="4way_270"/>
<trip id="280" depart="70.0" fromJunction="3way_382" toJunction="4way_250"/>
<trip id="281" depart="70.25" fromJunction="4way_96" toJunction="4way_238"/>
<trip id="282" depart="70.5" fromJunction="4way_137" toJunction="4way_48"/>
<trip id="283" depart="70.75" fromJunction="4way_137" toJunction="4way_348"/>
<trip id="284" depart="71.0" fromJunction="4way_138" toJunction="4way_115"/>
<trip id="285" depart="71.25" fromJunction="3way_15" toJunction="4way_117"/>
<trip id="286" depart="71.5" fromJunction="4way_225" toJunction="3way_60"/>
<trip id="287" depart="71.75" fromJunction="4way_223" toJunction="4way_377"/>
<trip id="288" depart="72.0" fromJunction="4way_196" toJunction="3way_180"/>
<trip id="289" depart="72.25" fromJunction="4way_376" toJunction="4way_306"/>
<trip id="290" depart="72.5" fromJunction="4way_211" toJunction="3way_180"/>
<trip id="291" depart="72.75" fromJunction="3way_279" toJunction="4way_266"/>
<trip id="292" depart="73.0" fromJunction="4way_162" toJunction="4way_132"/>
<trip id="293" depart="73.25" fromJunction="3way_139" toJunction="3way_16"/>
<trip id="294" depart="73.5" fromJunction="4way_376" toJunction="3way_159"/>
<trip id="295" depart="73.75" fromJunction="4way_296" toJunction="4way_113"/>
<trip id="296" depart="74.0" fromJunction="4way_248" toJunction="4way_311"/>
<trip id="297" depart="74.25" fromJunction="4way_378" toJunction="4way_263"/>
<trip id="298" depart="74.5" fromJunction="4way_147" toJunction="4way_364"/>
<trip id="299" depart="74.75" fromJunction="4way_218" toJunction="4way_125"/>
<trip id="300" depart="75.0" fromJunction="4way_84" toJunction="3way_60"/>
<trip id="301" depart="75.25" fromJunction="3way_179" toJunction="4way_371"/>
<trip id="302" depart="75.5" fromJunction="4way_207" toJunction="4way_150"/>
<trip id="303" depart="75.75" fromJunction="4way_102" toJunction="4way_103"/>
<trip id="304" depart="76.0" fromJunction="4way_45" toJunction="4way_128"/>
<trip id="305" depart="76.25" fromJunction="4way_164" toJunction="4way_27"/>
<trip id="306" depart="76.5" fromJunction="3way_382" toJunction="4way_158"/>
<trip id="307" depart="76.75" fromJunction="4way_204" toJunction="3way_396"/>
<trip id="308" depart="77.0" fromJunction="4way_211" toJunction="4way_30"/>
<trip id="309" depart="77.25" fromJunction="4way_378" toJunction="4way_285"/>
<trip id="310" depart="77.5" fromJunction="4way_332" toJunction="4way_284"/>
<trip id="311" depart="77.75" fromJunction="4way_334" toJunction="4way_31"/>
<trip id="312" depart="78.0" fromJunction="4way_236" toJunction="4way_198"/>
<trip id="313" depart="78.25" fromJunction="4way_152" toJunction="4way_313"/>
<trip id="314" depart="78.5" fromJunction="3way_280" toJunction="4way_144"/>
<trip id="315" depart="78.75" fromJunction="4way_122" toJunction="3way_159"/>
<trip id="316" depart="79.0" fromJunction="4way_188" toJunction="4way_206"/>
<trip id="317" depart="79.25" fromJunction="4way_58" toJunction="4way_34"/>
<trip id="318" depart="79.5" fromJunction="3way_392" toJunction="3way_388"/>
<trip id="319" depart="79.75" fromJunction="4way_173" toJunction="4way_369"/>
<trip id="320" depart="80.0" fromJunction="4way_237" toJunction="4way_255"/>
<trip id="321" depart="80.25" fromJunction="4way_305" toJunction="4way_258"/>
<trip id="322" depart="80.5" fromJunction="3way_280" toJunction="4way_145"/>
<trip id="323" depart="80.75" fromJunction="4way_191" toJunction="4way_52"/>
<trip id="324" depart="81.0" fromJunction="3way_396" toJunction="4way_375"/>
<trip id="325" depart="81.25" fromJunction="4way_309" toJunction="4way_367"/>
<trip id="326" depart="81.5" fromJunction="3way_120" toJunction="4way_122"/>
<trip id="327" depart="81.75" fromJunction="3way_139" toJunction="4way_355"/>
<trip id="328" depart="82.0" fromJunction="3way_389" toJunction="4way_147"/>
<trip id="329" depart="82.25" fromJunction="4way_238" toJunction="4way_27"/>
<trip id="330" depart="82.5" fromJunction="4way_335" toJunction="4way_126"/>
<trip id="331" depart="82.75" fromJunction="4way_362" toJunction="3way_388"/>
<trip id="332" depart="83.0" fromJunction="4way_305" toJunction="4way_325"/>
<trip id="333" depart="83.25" fromJunction="4way_224" toJunction="4way_291"/>
<trip id="334" depart="83.5" fromJunction="4way_51" toJunction="4way_272"/>
<trip id="335" depart="83.75" fromJunction="4way_186" toJunction="4way_305"/>
<trip id="336" depart="84.0" fromJunction="3way_219" toJunction="4way_210"/>
<trip id="337" depart="84.25" fromJunction="4way_151" toJunction="4way_55"/>
<trip id="338" depart="84.5" fromJunction="4way_308" toJunction="4way_372"/>
<trip id="339" depart="84.75" fromJunction="4way_345" toJunction="3way_391"/>
<trip id="340" depart="85.0" fromJunction="4way_44" toJunction="4way_345"/>
<trip id="341" depart="85.25" fromJunction="4way_93" toJunction="3way_12"/>
<trip id="342" depart="85.5" fromJunction="4way_150" toJunction="3way_391"/>
<trip id="343" depart="85.75" fromJunction="4way_370" toJunction="4way_192"/>
<trip id="344" depart="86.0" fromJunction="3way_394" toJunction="4way_58"/>
<trip id="345" depart="86.25" fromJunction="3way_12" toJunction="4way_56"/>
<trip id="346" depart="86.5" fromJunction="4way_345" toJunction="4way_288"/>
<trip id="347" depart="86.75" fromJunction="4way_25" toJunction="4way_208"/>
<trip id="348" depart="87.0" fromJunction="3way_8" toJunction="4way_81"/>
<trip id="349" depart="87.25" fromJunction="4way_215" toJunction="4way_168"/>
<trip id="350" depart="87.5" fromJunction="4way_341" toJunction="4way_85"/>
<trip id="351" depart="87.75" fromJunction="3way_339" toJunction="3way_299"/>
<trip id="352" depart="88.0" fromJunction="3way_395" toJunction="4way_321"/>
<trip id="353" depart="88.25" fromJunction="3way_199" toJunction="4way_302"/>
<trip id="354" depart="88.5" fromJunction="4way_335" toJunction="3way_179"/>
<trip id="355" depart="88.75" fromJunction="4way_129" toJunction="3way_160"/>
<trip id="356" depart="89.0" fromJunction="4way_27" toJunction="4way_34"/>
<trip id="357" depart="89.25" fromJunction="4way_161" toJunction="3way_240"/>
<trip id="358" depart="89.5" fromJunction="4way_248" toJunction="4way_206"/>
<trip id="359" depart="89.75" fromJunction="4way_94" toJunction="4way_264"/>
<trip id="360" depart="90.0" fromJunction="4way_177" toJunction="4way_213"/>
<trip id="361" depart="90.25" fromJunction="4way_276" toJunction="3way_12"/>
<trip id="362" depart="90.5" fromJunction="4way_136" toJunction="4way_245"/>
<trip id="363" depart="90.75" fromJunction="4way_278" toJunction="4way_92"/>
<trip id="364" depart="91.0" fromJunction="4way_25" toJunction="4way_273"/>
<trip id="365" depart="91.25" fromJunction="4way_125" toJunction="4way_28"/>
<trip id="366" depart="91.5" fromJunction="4way_282" toJunction="4way_25"/>
<trip id="367" depart="91.75" fromJunction="4way_371" toJunction="4way_347"/>
<trip id="368" depart="92.0" fromJunction="4way_208" toJunction="4way_43"/>
<trip id="369" depart="92.25" fromJunction="3way_180" toJunction="3way_388"/>
<trip id="370" depart="92.5" fromJunction="4way_158" toJunction="3way_39"/>
<trip id="371" depart="92.75" fromJunction="3way_40" toJunction="3way_2"/>
<trip id="372" depart="93.0" fromJunction="3way_319" toJunction="4way_190"/>
<trip id="373" depart="93.25" fromJunction="4way_312" toJunction="4way_176"/>
<trip id="374" depart="93.5" fromJunction="4way_88" toJunction="4way_118"/>
<trip id="375" depart="93.75" fromJunction="4way_49" toJunction="4way_223"/>
<trip id="376" depart="94.0" fromJunction="4way_188" toJunction="4way_197"/>
<trip id="377" depart="94.25" fromJunction="4way_136" toJunction="4way_322"/>
<trip id="378" depart="94.5" fromJunction="3way_1" toJunction="4way_85"/>
<trip id="379" depart="94.75" fromJunction="4way_24" toJunction="4way_182"/>
<trip id="380" depart="95.0" fromJunction="4way_47" toJunction="4way_355"/>
<trip id="381" depart="95.25" fromJunction="4way_164" toJunction="4way_306"/>
<trip id="382" depart="95.5" fromJunction="4way_317" toJunction="4way_156"/>
<trip id="383" depart="95.75" fromJunction="4way_125" toJunction="4way_318"/>
<trip id="384" depart="96.0" fromJunction="4way_174" toJunction="4way_118"/>
<trip id="385" depart="96.25" fromJunction="4way_142" toJunction="4way_331"/>
<trip id="386" depart="96.5" fromJunction="3way_140" toJunction="4way_281"/>
<trip id="387" depart="96.75" fromJunction="4way_183" toJunction="4way_137"/>
<trip id="388" depart="97.0" fromJunction="4way_327" toJunction="4way_366"/>