<?xml version="1.0" encoding="UTF-8"?>

<!-- generated on 2023-07-27 20:32:45 by Eclipse SUMO duarouter Version 1.12.0
<configuration xmlns:xsi="http://www.w3.org/2001/XMLSchema-instance" xsi:noNamespaceSchemaLocation="http://sumo.dlr.de/xsd/duarouterConfiguration.xsd">

    <input>
        <net-file value="sq.net.xml"/>
        <route-files value="sq.trips.xml"/>
        <junction-taz value="true"/>
    </input>

    <output>
        <output-file value="sq.rou.xml"/>
        <alternatives-output value="sq.rou.alt.xml"/>
    </output>

    <processing>
        <weights.random-factor value="1.2"/>
    </processing>

    <time>
        <begin value="0"/>
        <end value="7200"/>
    </time>

    <report>
        <verbose value="true"/>
    </report>

    <random_number>
        <seed value="5"/>
    </random_number>

</configuration>
-->

<routes xmlns:xsi="http://www.w3.org/2001/XMLSchema-instance" xsi:noNamespaceSchemaLocation="http://sumo.dlr.de/xsd/routes_file.xsd">
    <vehicle id="0" depart="0.00">
        <route edges="35_4way_7to4way_6 23_4way_6to3way_5"/>
    </vehicle>
    <vehicle id="1" depart="0.53">
        <route edges="23_3way_5to4way_6"/>
    </vehicle>
    <vehicle id="2" depart="1.07">
        <route edges="26_4way_11to4way_16 17_4way_16to3way_21"/>
    </vehicle>
    <vehicle id="3" depart="1.60">
        <route edges="36_4way_8to4way_7 35_4way_7to4way_6 23_4way_6to3way_5 5_3way_5to3way_10 4_3way_10to3way_15"/>
    </vehicle>
    <vehicle id="4" depart="2.13">
        <route edges="16_3way_21to3way_22 18_3way_22to3way_23 20_3way_23to4way_18"/>
    </vehicle>
    <vehicle id="5" depart="2.67">
        <route edges="5_3way_5to3way_10 6_3way_10to4way_11 25_4way_11to4way_12"/>
    </vehicle>
    <vehicle id="6" depart="3.20">
        <route edges="32_4way_13to4way_8 36_4way_8to4way_7 35_4way_7to4way_6 23_4way_6to3way_5"/>
    </vehicle>
    <vehicle id="7" depart="3.73">
        <route edges="29_4way_17to4way_12 30_4way_12to4way_7 15_4way_7to3way_2 1_3way_2to3way_1"/>
    </vehicle>
    <vehicle id="8" depart="4.27">
        <route edges="36_4way_8to4way_7 30_4way_7to4way_12"/>
    </vehicle>
    <vehicle id="9" depart="4.80">
        <route edges="29_4way_12to4way_17 34_4way_17to4way_18"/>
    </vehicle>
    <vehicle id="10" depart="5.33">
        <route edges="25_4way_12to4way_11 6_4way_11to3way_10 4_3way_10to3way_15"/>
    </vehicle>
    <vehicle id="11" depart="5.87">
        <route edges="27_4way_11to4way_6 3_4way_6to3way_1 1_3way_1to3way_2 14_3way_2to3way_3"/>
    </vehicle>
    <vehicle id="12" depart="6.40">
        <route edges="9_4way_13to3way_14 8_3way_14to3way_9"/>
    </vehicle>
    <vehicle id="13" depart="6.93">
        <route edges="10_3way_21to3way_15 4_3way_15to3way_10"/>
    </vehicle>
    <vehicle id="14" depart="7.47">
        <route edges="29_4way_12to4way_17 34_4way_17to4way_18 13_4way_18to3way_19"/>
    </vehicle>
    <vehicle id="15" depart="8.00">
        <route edges="5_3way_5to3way_10 4_3way_10to3way_15"/>
    </vehicle>
    <vehicle id="16" depart="8.53">
        <route edges="3_4way_6to3way_1"/>
    </vehicle>
    <vehicle id="17" depart="9.07">
        <route edges="33_4way_16to4way_17 34_4way_17to4way_18 31_4way_18to4way_13"/>
    </vehicle>
    <vehicle id="18" depart="9.60">
        <route edges="10_3way_15to3way_21 16_3way_21to3way_22"/>
    </vehicle>
    <vehicle id="19" depart="10.13">
        <route edges="1_3way_2to3way_1 3_3way_1to4way_6 27_4way_6to4way_11 26_4way_11to4way_16"/>
    </vehicle>
    <vehicle id="20" depart="10.67">
        <route edges="21_3way_3to3way_9 8_3way_9to3way_14"/>
    </vehicle>
    <vehicle id="21" depart="11.20">
        <route edges="18_3way_22to3way_23"/>
    </vehicle>
    <vehicle id="22" depart="11.73">
        <route edges="4_3way_15to3way_10 5_3way_10to3way_5"/>
    </vehicle>
    <vehicle id="23" depart="12.27">
        <route edges="22_3way_3to4way_8 32_4way_8to4way_13 31_4way_13to4way_18"/>
    </vehicle>
    <vehicle id="24" depart="12.80">
        <route edges="8_3way_9to3way_14"/>
    </vehicle>
    <vehicle id="25" depart="13.33">
        <route edges="7_3way_19to3way_14 9_3way_14to4way_13 28_4way_13to4way_12 25_4way_12to4way_11"/>
    </vehicle>
    <vehicle id="26" depart="13.87">
        <route edges="13_3way_19to4way_18 34_4way_18to4way_17 33_4way_17to4way_16 11_4way_16to3way_15"/>
    </vehicle>
    <vehicle id="27" depart="14.40">
        <route edges="21_3way_3to3way_9"/>
    </vehicle>
    <vehicle id="28" depart="14.93">
        <route edges="14_3way_3to3way_2 1_3way_2to3way_1 3_3way_1to4way_6 27_4way_6to4way_11"/>
    </vehicle>
    <vehicle id="29" depart="15.47">
        <route edges="18_3way_22to3way_23 12_3way_23to3way_19 7_3way_19to3way_14"/>
    </vehicle>
    <vehicle id="30" depart="16.00">
        <route edges="14_3way_3to3way_2 15_3way_2to4way_7 30_4way_7to4way_12 29_4way_12to4way_17"/>
    </vehicle>
    <vehicle id="31" depart="16.53">
        <route edges="14_3way_3to3way_2 15_3way_2to4way_7 30_4way_7to4way_12 29_4way_12to4way_17"/>
    </vehicle>
    <vehicle id="32" depart="17.07">
        <route edges="11_3way_15to4way_16 33_4way_16to4way_17 34_4way_17to4way_18"/>
    </vehicle>
    <vehicle id="33" depart="17.60">
        <route edges="27_4way_6to4way_11 26_4way_11to4way_16 33_4way_16to4way_17 34_4way_17to4way_18"/>
    </vehicle>
    <vehicle id="34" depart="18.13">
        <route edges="3_3way_1to4way_6 35_4way_6to4way_7"/>
    </vehicle>
    <vehicle id="35" depart="18.67">
        <route edges="22_3way_3to4way_8 32_4way_8to4way_13 31_4way_13to4way_18 13_4way_18to3way_19"/>
    </vehicle>
    <vehicle id="36" depart="19.20">
        <route edges="22_3way_3to4way_8 32_4way_8to4way_13 31_4way_13to4way_18 20_4way_18to3way_23"/>
    </vehicle>
    <vehicle id="37" depart="19.73">
        <route edges="16_3way_21to3way_22 18_3way_22to3way_23"/>
    </vehicle>
    <vehicle id="38" depart="20.27">
        <route edges="33_4way_16to4way_17 29_4way_17to4way_12 30_4way_12to4way_7 15_4way_7to3way_2"/>
    </vehicle>
    <vehicle id="39" depart="20.80">
        <route edges="7_3way_19to3way_14 8_3way_14to3way_9 24_3way_9to4way_8 36_4way_8to4way_7 35_4way_7to4way_6 23_4way_6to3way_5"/>
    </vehicle>
    <vehicle id="40" depart="21.33">
        <route edges="1_3way_2to3way_1 2_3way_1to3way_5 5_3way_5to3way_10"/>
    </vehicle>
    <vehicle id="41" depart="21.87">
        <route edges="32_4way_13to4way_8 36_4way_8to4way_7 35_4way_7to4way_6"/>
    </vehicle>
    <vehicle id="42" depart="22.40">
        <route edges="17_4way_16to3way_21 16_3way_21to3way_22 18_3way_22to3way_23"/>
    </vehicle>
    <vehicle id="43" depart="22.93">
        <route edges="36_4way_7to4way_8 22_4way_8to3way_3"/>
    </vehicle>
    <vehicle id="44" depart="23.47">
        <route edges="24_3way_9to4way_8 32_4way_8to4way_13 31_4way_13to4way_18 20_4way_18to3way_23"/>
    </vehicle>
    <vehicle id="45" depart="24.00">
        <route edges="3_3way_1to4way_6"/>
    </vehicle>
    <vehicle id="46" depart="24.53">
        <route edges="3_3way_1to4way_6 27_4way_6to4way_11 26_4way_11to4way_16 33_4way_16to4way_17"/>
    </vehicle>
    <vehicle id="47" depart="25.07">
        <route edges="13_3way_19to4way_18 34_4way_18to4way_17 33_4way_17to4way_16"/>
    </vehicle>
    <vehicle id="48" depart="25.60">
        <route edges="31_4way_18to4way_13 32_4way_13to4way_8 36_4way_8to4way_7"/>
    </vehicle>
    <vehicle id="49" depart="26.13">
        <route edges="27_4way_6to4way_11 26_4way_11to4way_16 33_4way_16to4way_17 34_4way_17to4way_18 13_4way_18to3way_19"/>
    </vehicle>
    <vehicle id="50" depart="26.67">
        <route edges="13_4way_18to3way_19 7_3way_19to3way_14"/>
    </vehicle>
    <vehicle id="51" depart="27.20">
        <route edges="33_4way_17to4way_16 11_4way_16to3way_15"/>
    </vehicle>
    <vehicle id="52" depart="27.73">
        <route edges="20_3way_23to4way_18 34_4way_18to4way_17 33_4way_17to4way_16"/>
    </vehicle>
    <vehicle id="53" depart="28.27">
        <route edges="16_3way_21to3way_22 19_3way_22to4way_17"/>
    </vehicle>
    <vehicle id="54" depart="28.80">
        <route edges="35_4way_6to4way_7 36_4way_7to4way_8"/>
    </vehicle>
    <vehicle id="55" depart="29.33">
        <route edges="33_4way_16to4way_17 34_4way_17to4way_18 31_4way_18to4way_13 32_4way_13to4way_8"/>
    </vehicle>
    <vehicle id="56" depart="29.87">
        <route edges="6_3way_10to4way_11 25_4way_11to4way_12 30_4way_12to4way_7"/>
    </vehicle>
    <vehicle id="57" depart="30.40">
        <route edges="26_4way_11to4way_16 33_4way_16to4way_17 34_4way_17to4way_18"/>
    </vehicle>
    <vehicle id="58" depart="30.93">
        <route edges="27_4way_6to4way_11 26_4way_11to4way_16 17_4way_16to3way_21"/>
    </vehicle>
    <vehicle id="59" depart="31.47">
        <route edges="20_3way_23to4way_18 31_4way_18to4way_13 32_4way_13to4way_8 22_4way_8to3way_3 14_3way_3to3way_2 1_3way_2to3way_1"/>
    </vehicle>
    <vehicle id="60" depart="32.00">
        <route edges="20_3way_23to4way_18 31_4way_18to4way_13 28_4way_13to4way_12 25_4way_12to4way_11"/>
    </vehicle>
    <vehicle id="61" depart="32.53">
        <route edges="11_3way_15to4way_16 26_4way_16to4way_11 27_4way_11to4way_6"/>
    </vehicle>
    <vehicle id="62" depart="33.07">
        <route edges="20_3way_23to4way_18 31_4way_18to4way_13 32_4way_13to4way_8 22_4way_8to3way_3"/>
    </vehicle>
    <vehicle id="63" depart="33.60">
        <route edges="23_4way_6to3way_5"/>
    </vehicle>
    <vehicle id="64" depart="34.13">
        <route edges="27_4way_11to4way_6"/>
    </vehicle>
    <vehicle id="65" depart="34.67">
        <route edges="11_3way_15to4way_16 26_4way_16to4way_11"/>
    </vehicle>
    <vehicle id="66" depart="35.20">
        <route edges="18_3way_22to3way_23 20_3way_23to4way_18 31_4way_18to4way_13 32_4way_13to4way_8"/>
    </vehicle>
    <vehicle id="67" depart="35.73">
        <route edges="36_4way_8to4way_7 35_4way_7to4way_6 23_4way_6to3way_5 5_3way_5to3way_10 4_3way_10to3way_15"/>
    </vehicle>
    <vehicle id="68" depart="36.26">
        <route edges="33_4way_16to4way_17 29_4way_17to4way_12"/>
    </vehicle>
    <vehicle id="69" depart="36.80">
        <route edges="32_4way_13to4way_8 22_4way_8to3way_3"/>
    </vehicle>
    <vehicle id="70" depart="37.33">
        <route edges="34_4way_18to4way_17 33_4way_17to4way_16"/>
    </vehicle>
    <vehicle id="71" depart="37.86">
        <route edges="24_4way_8to3way_9"/>
    </vehicle>
    <vehicle id="72" depart="38.40">
        <route edges="35_4way_6to4way_7 36_4way_7to4way_8 24_4way_8to3way_9"/>
    </vehicle>
    <vehicle id="73" depart="38.93">
        <route edges="34_4way_17to4way_18 31_4way_18to4way_13 32_4way_13to4way_8 22_4way_8to3way_3"/>
    </vehicle>
    <vehicle id="74" depart="39.46">
        <route edges="5_3way_5to3way_10 6_3way_10to4way_11 25_4way_11to4way_12"/>
    </vehicle>
    <vehicle id="75" depart="40.00">
        <route edges="15_3way_2to4way_7 30_4way_7to4way_12 29_4way_12to4way_17 19_4way_17to3way_22 16_3way_22to3way_21"/>
    </vehicle>
    <vehicle id="76" depart="40.53">
        <route edges="11_3way_15to4way_16"/>
    </vehicle>
    <vehicle id="77" depart="41.06">
        <route edges="36_4way_8to4way_7"/>
    </vehicle>
    <vehicle id="78" depart="41.60">
        <route edges="34_4way_17to4way_18"/>
    </vehicle>
    <vehicle id="79" depart="42.13">
        <route edges="19_3way_22to4way_17 29_4way_17to4way_12 30_4way_12to4way_7 15_4way_7to3way_2 1_3way_2to3way_1"/>
    </vehicle>
    <vehicle id="80" depart="42.66">
        <route edges="24_3way_9to4way_8 36_4way_8to4way_7"/>
    </vehicle>
    <vehicle id="81" depart="43.20">
        <route edges="1_3way_2to3way_1 2_3way_1to3way_5 5_3way_5to3way_10"/>
    </vehicle>
    <vehicle id="82" depart="43.73">
        <route edges="1_3way_1to3way_2 14_3way_2to3way_3 21_3way_3to3way_9 8_3way_9to3way_14"/>
    </vehicle>
    <vehicle id="83" depart="44.26">
        <route edges="9_3way_14to4way_13 28_4way_13to4way_12"/>
    </vehicle>
    <vehicle id="84" depart="44.80">
        <route edges="28_4way_13to4way_12 29_4way_12to4way_17 19_4way_17to3way_22"/>
    </vehicle>
    <vehicle id="85" depart="45.33">
        <route edges="3_3way_1to4way_6 27_4way_6to4way_11 26_4way_11to4way_16"/>
    </vehicle>
    <vehicle id="86" depart="45.86">
        <route edges="25_4way_11to4way_12 28_4way_12to4way_13 9_4way_13to3way_14 8_3way_14to3way_9"/>
    </vehicle>
    <vehicle id="87" depart="46.40">
        <route edges="8_3way_14to3way_9 24_3way_9to4way_8 36_4way_8to4way_7 35_4way_7to4way_6"/>
    </vehicle>
    <vehicle id="88" depart="46.93">
        <route edges="27_4way_6to4way_11 25_4way_11to4way_12 28_4way_12to4way_13"/>
    </vehicle>
    <vehicle id="89" depart="47.46">
        <route edges="23_4way_6to3way_5"/>
    </vehicle>
    <vehicle id="90" depart="48.00">
        <route edges="20_3way_23to4way_18 31_4way_18to4way_13 32_4way_13to4way_8 36_4way_8to4way_7"/>
    </vehicle>
    <vehicle id="91" depart="48.53">
        <route edges="9_3way_14to4way_13 28_4way_13to4way_12 29_4way_12to4way_17 19_4way_17to3way_22 16_3way_22to3way_21"/>
    </vehicle>
    <vehicle id="92" depart="49.06">
        <route edges="9_4way_13to3way_14 8_3way_14to3way_9"/>
    </vehicle>
    <vehicle id="93" depart="49.60">
        <route edges="6_3way_10to4way_11 25_4way_11to4way_12 30_4way_12to4way_7"/>
    </vehicle>
    <vehicle id="94" depart="50.13">
        <route edges="7_3way_19to3way_14"/>
    </vehicle>
    <vehicle id="95" depart="50.66">
        <route edges="4_3way_15to3way_10 5_3way_10to3way_5 2_3way_5to3way_1 1_3way_1to3way_2"/>
    </vehicle>
    <vehicle id="96" depart="51.20">
        <route edges="17_4way_16to3way_21 16_3way_21to3way_22 18_3way_22to3way_23"/>
    </vehicle>
    <vehicle id="97" depart="51.73">
        <route edges="8_3way_9to3way_14 7_3way_14to3way_19 12_3way_19to3way_23 18_3way_23to3way_22"/>
    </vehicle>
    <vehicle id="98" depart="52.26">
        <route edges="1_3way_2to3way_1"/>
    </vehicle>
    <vehicle id="99" depart="52.80">
        <route edges="11_3way_15to4way_16"/>
    </vehicle>
    <vehicle id="100" depart="53.33">
        <route edges="36_4way_8to4way_7 35_4way_7to4way_6 23_4way_6to3way_5"/>
    </vehicle>
    <vehicle id="101" depart="53.86">
        <route edges="9_3way_14to4way_13 31_4way_13to4way_18"/>
    </vehicle>
    <vehicle id="102" depart="54.40">
        <route edges="7_3way_19to3way_14 9_3way_14to4way_13 28_4way_13to4way_12 25_4way_12to4way_11"/>
    </vehicle>
    <vehicle id="103" depart="54.93">
        <route edges="15_4way_7to3way_2 1_3way_2to3way_1"/>
    </vehicle>
    <vehicle id="104" depart="55.46">
        <route edges="16_3way_21to3way_22 18_3way_22to3way_23"/>
    </vehicle>
    <vehicle id="105" depart="56.00">
        <route edges="29_4way_17to4way_12 30_4way_12to4way_7 35_4way_7to4way_6"/>
    </vehicle>
    <vehicle id="106" depart="56.53">
        <route edges="36_4way_8to4way_7 35_4way_7to4way_6 27_4way_6to4way_11"/>
    </vehicle>
    <vehicle id="107" depart="57.06">
        <route edges="29_4way_12to4way_17 34_4way_17to4way_18 13_4way_18to3way_19"/>
    </vehicle>
    <vehicle id="108" depart="57.60">
        <route edges="13_4way_18to3way_19 7_3way_19to3way_14 8_3way_14to3way_9"/>
    </vehicle>
    <vehicle id="109" depart="58.13">
        <route edges="9_3way_14to4way_13 28_4way_13to4way_12 25_4way_12to4way_11 26_4way_11to4way_16"/>
    </vehicle>
    <vehicle id="110" depart="58.66">
        <route edges="30_4way_7to4way_12 28_4way_12to4way_13"/>
    </vehicle>
    <vehicle id="111" depart="59.20">
        <route edges="7_3way_14to3way_19"/>
    </vehicle>
    <vehicle id="112" depart="59.73">
        <route edges="2_3way_1to3way_5 5_3way_5to3way_10"/>
    </vehicle>
    <vehicle id="113" depart="60.26">
        <route edges="16_3way_21to3way_22 18_3way_22to3way_23 12_3way_23to3way_19 7_3way_19to3way_14"/>
    </vehicle>
    <vehicle id="114" depart="60.80">
        <route edges="10_3way_15to3way_21 16_3way_21to3way_22"/>
    </vehicle>
    <vehicle id="115" depart="61.33">
        <route edges="27_4way_6to4way_11 26_4way_11to4way_16 33_4way_16to4way_17 34_4way_17to4way_18 13_4way_18to3way_19"/>
    </vehicle>
    <vehicle id="116" depart="61.86">
        <route edges="22_3way_3to4way_8"/>
    </vehicle>
    <vehicle id="117" depart="62.40">
        <route edges="14_3way_3to3way_2 1_3way_2to3way_1 2_3way_1to3way_5 5_3way_5to3way_10"/>
    </vehicle>
    <vehicle id="118" depart="62.93">
        <route edges="16_3way_21to3way_22 19_3way_22to4way_17 29_4way_17to4way_12 30_4way_12to4way_7"/>
    </vehicle>
    <vehicle id="119" depart="63.46">
        <route edges="24_3way_9to4way_8 36_4way_8to4way_7 35_4way_7to4way_6 23_4way_6to3way_5"/>
    </vehicle>
    <vehicle id="120" depart="64.00">
        <route edges="6_3way_10to4way_11 25_4way_11to4way_12 28_4way_12to4way_13 9_4way_13to3way_14 8_3way_14to3way_9"/>
    </vehicle>
    <vehicle id="121" depart="64.53">
        <route edges="31_4way_13to4way_18 20_4way_18to3way_23 18_3way_23to3way_22"/>
    </vehicle>
    <vehicle id="122" depart="65.06">
        <route edges="30_4way_7to4way_12"/>
    </vehicle>
    <vehicle id="123" depart="65.60">
        <route edges="15_3way_2to4way_7 36_4way_7to4way_8"/>
    </vehicle>
    <vehicle id="124" depart="66.13">
        <route edges="23_4way_6to3way_5"/>
    </vehicle>
    <vehicle id="125" depart="66.66">
        <route edges="20_3way_23to4way_18"/>
    </vehicle>
    <vehicle id="126" depart="67.20">
        <route edges="22_3way_3to4way_8 32_4way_8to4way_13 31_4way_13to4way_18 13_4way_18to3way_19"/>
    </vehicle>
    <vehicle id="127" depart="67.73">
        <route edges="32_4way_13to4way_8 22_4way_8to3way_3 14_3way_3to3way_2 1_3way_2to3way_1"/>
    </vehicle>
    <vehicle id="128" depart="68.26">
        <route edges="25_4way_12to4way_11 26_4way_11to4way_16"/>
    </vehicle>
    <vehicle id="129" depart="68.80">
        <route edges="27_4way_6to4way_11 26_4way_11to4way_16 33_4way_16to4way_17 34_4way_17to4way_18 13_4way_18to3way_19"/>
    </vehicle>
    <vehicle id="130" depart="69.33">
        <route edges="5_3way_10to3way_5 2_3way_5to3way_1 1_3way_1to3way_2"/>
    </vehicle>
    <vehicle id="131" depart="69.86">
        <route edges="32_4way_8to4way_13 31_4way_13to4way_18"/>
    </vehicle>
    <vehicle id="132" depart="70.40">
        <route edges="20_4way_18to3way_23 18_3way_23to3way_22"/>
    </vehicle>
    <vehicle id="133" depart="70.93">
        <route edges="9_4way_13to3way_14"/>
    </vehicle>
    <vehicle id="134" depart="71.46">
        <route edges="28_4way_12to4way_13"/>
    </vehicle>
    <vehicle id="135" depart="72.00">
        <route edges="36_4way_8to4way_7 35_4way_7to4way_6 27_4way_6to4way_11"/>
    </vehicle>
    <vehicle id="136" depart="72.53">
        <route edges="19_4way_17to3way_22 18_3way_22to3way_23"/>
    </vehicle>
    <vehicle id="137" depart="73.06">
        <route edges="3_3way_1to4way_6"/>
    </vehicle>
    <vehicle id="138" depart="73.60">
        <route edges="24_3way_9to4way_8 36_4way_8to4way_7 30_4way_7to4way_12 29_4way_12to4way_17 19_4way_17to3way_22"/>
    </vehicle>
    <vehicle id="139" depart="74.13">
        <route edges="4_3way_10to3way_15 11_3way_15to4way_16 33_4way_16to4way_17 34_4way_17to4way_18"/>
    </vehicle>
    <vehicle id="140" depart="74.66">
        <route edges="6_4way_11to3way_10"/>
    </vehicle>
    <vehicle id="141" depart="75.20">
        <route edges="14_3way_3to3way_2 15_3way_2to4way_7 30_4way_7to4way_12 29_4way_12to4way_17 19_4way_17to3way_22"/>
    </vehicle>
    <vehicle id="142" depart="75.73">
        <route edges="24_3way_9to4way_8 36_4way_8to4way_7 30_4way_7to4way_12 29_4way_12to4way_17"/>
    </vehicle>
    <vehicle id="143" depart="76.26">
        <route edges="9_3way_14to4way_13 28_4way_13to4way_12 25_4way_12to4way_11 6_4way_11to3way_10"/>
    </vehicle>
    <vehicle id="144" depart="76.80">
        <route edges="22_4way_8to3way_3"/>
    </vehicle>
    <vehicle id="145" depart="77.33">
        <route edges="28_4way_12to4way_13"/>
    </vehicle>
    <vehicle id="146" depart="77.86">
        <route edges="15_3way_2to4way_7 30_4way_7to4way_12 29_4way_12to4way_17 19_4way_17to3way_22 18_3way_22to3way_23"/>
    </vehicle>
    <vehicle id="147" depart="78.40">
        <route edges="9_3way_14to4way_13 28_4way_13to4way_12 25_4way_12to4way_11 26_4way_11to4way_16 17_4way_16to3way_21"/>
    </vehicle>
    <vehicle id="148" depart="78.93">
        <route edges="14_3way_2to3way_3"/>
    </vehicle>
    <vehicle id="149" depart="79.46">
        <route edges="3_3way_1to4way_6 35_4way_6to4way_7"/>
    </vehicle>
    <vehicle id="150" depart="80.00">
        <route edges="24_3way_9to4way_8 36_4way_8to4way_7 30_4way_7to4way_12"/>
    </vehicle>
    <vehicle id="151" depart="80.53">
        <route edges="13_3way_19to4way_18 34_4way_18to4way_17 33_4way_17to4way_16"/>
    </vehicle>
    <vehicle id="152" depart="81.06">
        <route edges="5_3way_5to3way_10 4_3way_10to3way_15 10_3way_15to3way_21"/>
    </vehicle>
    <vehicle id="153" depart="81.60">
        <route edges="36_4way_7to4way_8"/>
    </vehicle>
    <vehicle id="154" depart="82.13">
        <route edges="21_3way_3to3way_9 8_3way_9to3way_14 7_3way_14to3way_19"/>
    </vehicle>
    <vehicle id="155" depart="82.66">
        <route edges="20_3way_23to4way_18 31_4way_18to4way_13 32_4way_13to4way_8 22_4way_8to3way_3 14_3way_3to3way_2"/>
    </vehicle>
    <vehicle id="156" depart="83.20">
        <route edges="11_3way_15to4way_16 33_4way_16to4way_17 34_4way_17to4way_18 13_4way_18to3way_19"/>
    </vehicle>
    <vehicle id="157" depart="83.73">
        <route edges="18_3way_22to3way_23 12_3way_23to3way_19"/>
    </vehicle>
    <vehicle id="158" depart="84.26">
        <route edges="28_4way_12to4way_13 9_4way_13to3way_14 8_3way_14to3way_9"/>
    </vehicle>
    <vehicle id="159" depart="84.80">
        <route edges="33_4way_16to4way_17 29_4way_17to4way_12 30_4way_12to4way_7 15_4way_7to3way_2"/>
    </vehicle>
    <vehicle id="160" depart="85.33">
        <route edges="18_3way_22to3way_23 12_3way_23to3way_19"/>
    </vehicle>
    <vehicle id="161" depart="85.86">
        <route edges="7_3way_19to3way_14 8_3way_14to3way_9 24_3way_9to4way_8 36_4way_8to4way_7 35_4way_7to4way_6"/>
    </vehicle>
    <vehicle id="162" depart="86.40">
        <route edges="7_3way_14to3way_19 12_3way_19to3way_23 18_3way_23to3way_22"/>
    </vehicle>
    <vehicle id="163" depart="86.93">
        <route edges="2_3way_1to3way_5 5_3way_5to3way_10 4_3way_10to3way_15"/>
    </vehicle>
    <vehicle id="164" depart="87.46">
        <route edges="15_3way_2to4way_7 30_4way_7to4way_12"/>
    </vehicle>
    <vehicle id="165" depart="88.00">
        <route edges="18_3way_23to3way_22 16_3way_22to3way_21 10_3way_21to3way_15 4_3way_15to3way_10"/>
    </vehicle>
    <vehicle id="166" depart="88.53">
        <route edges="31_4way_18to4way_13 32_4way_13to4way_8 36_4way_8to4way_7 35_4way_7to4way_6"/>
    </vehicle>
    <vehicle id="167" depart="89.06">
        <route edges="3_3way_1to4way_6 27_4way_6to4way_11"/>
    </vehicle>
    <vehicle id="168" depart="89.59">
        <route edges="4_3way_10to3way_15"/>
    </vehicle>
    <vehicle id="169" depart="90.13">
        <route edges="26_4way_16to4way_11 27_4way_11to4way_6 23_4way_6to3way_5"/>
    </vehicle>
    <vehicle id="170" depart="90.66">
        <route edges="21_3way_3to3way_9 8_3way_9to3way_14 7_3way_14to3way_19"/>
    </vehicle>
    <vehicle id="171" depart="91.19">
        <route edges="34_4way_18to4way_17 33_4way_17to4way_16 17_4way_16to3way_21"/>
    </vehicle>
    <vehicle id="172" depart="91.73">
        <route edges="24_4way_8to3way_9"/>
    </vehicle>
    <vehicle id="173" depart="92.26">
        <route edges="4_3way_15to3way_10 5_3way_10to3way_5"/>
    </vehicle>
    <vehicle id="174" depart="92.79">
        <route edges="11_3way_15to4way_16 33_4way_16to4way_17 34_4way_17to4way_18 31_4way_18to4way_13 32_4way_13to4way_8"/>
    </vehicle>
    <vehicle id="175" depart="93.33">
        <route edges="16_3way_21to3way_22 19_3way_22to4way_17 29_4way_17to4way_12 30_4way_12to4way_7"/>
    </vehicle>
    <vehicle id="176" depart="93.86">
        <route edges="33_4way_16to4way_17 34_4way_17to4way_18 31_4way_18to4way_13 32_4way_13to4way_8"/>
    </vehicle>
    <vehicle id="177" depart="94.39">
        <route edges="20_3way_23to4way_18 34_4way_18to4way_17 33_4way_17to4way_16"/>
    </vehicle>
    <vehicle id="178" depart="94.93">
        <route edges="25_4way_11to4way_12 30_4way_12to4way_7"/>
    </vehicle>
    <vehicle id="179" depart="95.46">
        <route edges="8_3way_9to3way_14 7_3way_14to3way_19"/>
    </vehicle>
    <vehicle id="180" depart="95.99">
        <route edges="31_4way_18to4way_13 28_4way_13to4way_12"/>
    </vehicle>
    <vehicle id="181" depart="96.53">
        <route edges="23_4way_6to3way_5 5_3way_5to3way_10 4_3way_10to3way_15"/>
    </vehicle>
    <vehicle id="182" depart="97.06">
        <route edges="11_3way_15to4way_16 33_4way_16to4way_17 34_4way_17to4way_18 31_4way_18to4way_13 32_4way_13to4way_8"/>
    </vehicle>
    <vehicle id="183" depart="97.59">
        <route edges="27_4way_6to4way_11 25_4way_11to4way_12 28_4way_12to4way_13"/>
    </vehicle>
    <vehicle id="184" depart="98.13">
        <route edges="28_4way_13to4way_12 29_4way_12to4way_17"/>
    </vehicle>
    <vehicle id="185" depart="98.66">
        <route edges="24_3way_9to4way_8 36_4way_8to4way_7 30_4way_7to4way_12 29_4way_12to4way_17"/>
    </vehicle>
    <vehicle id="186" depart="99.19">
        <route edges="17_3way_21to4way_16 26_4way_16to4way_11"/>
    </vehicle>
    <vehicle id="187" depart="99.73">
        <route edges="16_3way_21to3way_22 19_3way_22to4way_17 29_4way_17to4way_12 30_4way_12to4way_7 15_4way_7to3way_2"/>
    </vehicle>
    <vehicle id="188" depart="100.26">
        <route edges="34_4way_17to4way_18 13_4way_18to3way_19"/>
    </vehicle>
    <vehicle id="189" depart="100.79">
        <route edges="31_4way_18to4way_13 32_4way_13to4way_8 22_4way_8to3way_3 14_3way_3to3way_2 1_3way_2to3way_1"/>
    </vehicle>
    <vehicle id="190" depart="101.33">
        <route edges="21_3way_9to3way_3 14_3way_3to3way_2 1_3way_2to3way_1"/>
    </vehicle>
    <vehicle id="191" depart="101.86">
        <route edges="28_4way_13to4way_12 25_4way_12to4way_11 26_4way_11to4way_16 17_4way_16to3way_21"/>
    </vehicle>
    <vehicle id="192" depart="102.39">
        <route edges="32_4way_13to4way_8 22_4way_8to3way_3"/>
    </vehicle>
    <vehicle id="193" depart="102.93">
        <route edges="11_3way_15to4way_16 33_4way_16to4way_17 34_4way_17to4way_18 31_4way_18to4way_13 32_4way_13to4way_8"/>
    </vehicle>
    <vehicle id="194" depart="103.46">
        <route edges="9_3way_14to4way_13 31_4way_13to4way_18 20_4way_18to3way_23"/>
    </vehicle>
    <vehicle id="195" depart="103.99">
        <route edges="3_3way_1to4way_6"/>
    </vehicle>
    <vehicle id="196" depart="104.53">
        <route edges="4_3way_15to3way_10 5_3way_10to3way_5 2_3way_5to3way_1"/>
    </vehicle>
    <vehicle id="197" depart="105.06">
        <route edges="7_3way_19to3way_14 8_3way_14to3way_9 21_3way_9to3way_3 14_3way_3to3way_2"/>
    </vehicle>
    <vehicle id="198" depart="105.59">
        <route edges="7_3way_19to3way_14"/>
    </vehicle>
    <vehicle id="199" depart="106.13">
        <route edges="1_3way_1to3way_2 14_3way_2to3way_3"/>
    </vehicle>
    <vehicle id="200" depart="106.66">
        <route edges="35_4way_6to4way_7 36_4way_7to4way_8 22_4way_8to3way_3"/>
    </vehicle>
    <vehicle id="201" depart="107.19">
        <route edges="8_3way_9to3way_14 7_3way_14to3way_19 12_3way_19to3way_23 18_3way_23to3way_22 16_3way_22to3way_21"/>
    </vehicle>
    <vehicle id="202" depart="107.73">
        <route edges="6_3way_10to4way_11"/>
    </vehicle>
    <vehicle id="203" depart="108.26">
        <route edges="15_3way_2to4way_7 30_4way_7to4way_12 29_4way_12to4way_17 34_4way_17to4way_18"/>
    </vehicle>
    <vehicle id="204" depart="108.79">
        <route edges="20_3way_23to4way_18 31_4way_18to4way_13 28_4way_13to4way_12"/>
    </vehicle>
    <vehicle id="205" depart="109.33">
        <route edges="25_4way_11to4way_12 28_4way_12to4way_13 9_4way_13to3way_14 7_3way_14to3way_19"/>
    </vehicle>
    <vehicle id="206" depart="109.86">
        <route edges="25_4way_11to4way_12 28_4way_12to4way_13 9_4way_13to3way_14 7_3way_14to3way_19"/>
    </vehicle>
    <vehicle id="207" depart="110.39">
        <route edges="17_3way_21to4way_16 26_4way_16to4way_11 6_4way_11to3way_10"/>
    </vehicle>
    <vehicle id="208" depart="110.93">
        <route edges="18_3way_23to3way_22 16_3way_22to3way_21 10_3way_21to3way_15 4_3way_15to3way_10 5_3way_10to3way_5"/>
    </vehicle>
    <vehicle id="209" depart="111.46">
        <route edges="17_3way_21to4way_16"/>
    </vehicle>
    <vehicle id="210" depart="111.99">
        <route edges="19_4way_17to3way_22"/>
    </vehicle>
    <vehicle id="211" depart="112.53">
        <route edges="3_3way_1to4way_6 27_4way_6to4way_11 25_4way_11to4way_12 28_4way_12to4way_13"/>
    </vehicle>
    <vehicle id="212" depart="113.06">
        <route edges="18_3way_22to3way_23 12_3way_23to3way_19 7_3way_19to3way_14"/>
    </vehicle>
    <vehicle id="213" depart="113.59">
        <route edges="34_4way_18to4way_17"/>
    </vehicle>
    <vehicle id="214" depart="114.13">
        <route edges="31_4way_13to4way_18"/>
    </vehicle>
    <vehicle id="215" depart="114.66">
        <route edges="20_4way_18to3way_23"/>
    </vehicle>
    <vehicle id="216" depart="115.19">
        <route edges="22_3way_3to4way_8 32_4way_8to4way_13 31_4way_13to4way_18 13_4way_18to3way_19"/>
    </vehicle>
    <vehicle id="217" depart="115.73">
        <route edges="9_3way_14to4way_13"/>
    </vehicle>
    <vehicle id="218" depart="116.26">
        <route edges="1_3way_2to3way_1 3_3way_1to4way_6 27_4way_6to4way_11 26_4way_11to4way_16"/>
    </vehicle>