<routes xmlns:xsi="http://www.w3.org/2001/XMLSchema-instance" xsi:noNamespaceSchemaLocation="http://sumo.dlr.de/xsd/routes_file.xsd">
<trip id="0" depart="0.0" fromJunction="4way_7" toJunction="3way_5"/>
<trip id="1" depart="0.5333" fromJunction="3way_5" toJunction="4way_6"/>
<trip id="2" depart="1.0666" fromJunction="4way_11" toJunction="3way_21"/>
<trip id="3" depart="1.5998999999999999" fromJunction="4way_8" toJunction="3way_15"/>
<trip id="4" depart="2.1332" fromJunction="3way_21" toJunction="4way_18"/>
<trip id="5" depart="2.6665" fromJunction="3way_5" toJunction="4way_12"/>
<trip id="6" depart="3.1997999999999998" fromJunction="4way_13" toJunction="3way_5"/>
<trip id="7" depart="3.7331" fromJunction="4way_17" toJunction="3way_1"/>
<trip id="8" depart="4.2664" fromJunction="4way_8" toJunction="4way_12"/>
<trip id="9" depart="4.7997" fromJunction="4way_12" toJunction="4way_18"/>
<trip id="10" depart="5.333" fromJunction="4way_12" toJunction="3way_15"/>
<trip id="11" depart="5.8663" fromJunction="4way_11" toJunction="3way_3"/>
<trip id="12" depart="6.3995999999999995" fromJunction="4way_13" toJunction="3way_9"/>
<trip id="13" depart="6.9329" fromJunction="3way_21" toJunction="3way_10"/>
<trip id="14" depart="7.4662" fromJunction="4way_12" toJunction="3way_19"/>
<trip id="15" depart="7.9995" fromJunction="3way_5" toJunction="3way_15"/>
<trip id="16" depart="8.5328" fromJunction="4way_6" toJunction="3way_1"/>
<trip id="17" depart="9.0661" fromJunction="4way_16" toJunction="4way_13"/>
<trip id="18" depart="9.5994" fromJunction="3way_15" toJunction="3way_22"/>
<trip id="19" depart="10.1327" fromJunction="3way_2" toJunction="4way_16"/>
<trip id="20" depart="10.666" fromJunction="3way_3" toJunction="3way_14"/>
<trip id="21" depart="11.1993" fromJunction="3way_22" toJunction="3way_23"/>
<trip id="22" depart="11.7326" fromJunction="3way_15" toJunction="3way_5"/>
<trip id="23" depart="12.2659" fromJunction="3way_3" toJunction="4way_18"/>
<trip id="24" depart="12.799199999999999" fromJunction="3way_9" toJunction="3way_14"/>
<trip id="25" depart="13.3325" fromJunction="3way_19" toJunction="4way_11"/>
<trip id="26" depart="13.8658" fromJunction="3way_19" toJunction="3way_15"/>
<trip id="27" depart="14.3991" fromJunction="3way_3" toJunction="3way_9"/>
<trip id="28" depart="14.9324" fromJunction="3way_3" toJunction="4way_11"/>
<trip id="29" depart="15.4657" fromJunction="3way_22" toJunction="3way_14"/>
<trip id="30" depart="15.999" fromJunction="3way_3" toJunction="4way_17"/>
<trip id="31" depart="16.5323" fromJunction="3way_3" toJunction="4way_17"/>
<trip id="32" depart="17.0656" fromJunction="3way_15" toJunction="4way_18"/>
<trip id="33" depart="17.5989" fromJunction="4way_6" toJunction="4way_18"/>
<trip id="34" depart="18.1322" fromJunction="3way_1" toJunction="4way_7"/>
<trip id="35" depart="18.6655" fromJunction="3way_3" toJunction="3way_19"/>
<trip id="36" depart="19.1988" fromJunction="3way_3" toJunction="3way_23"/>
<trip id="37" depart="19.7321" fromJunction="3way_21" toJunction="3way_23"/>
<trip id="38" depart="20.2654" fromJunction="4way_16" toJunction="3way_2"/>
<trip id="39" depart="20.7987" fromJunction="3way_19" toJunction="3way_5"/>
<trip id="40" depart="21.332" fromJunction="3way_2" toJunction="3way_10"/>
<trip id="41" depart="21.8653" fromJunction="4way_13" toJunction="4way_6"/>
<trip id="42" depart="22.3986" fromJunction="4way_16" toJunction="3way_23"/>
<trip id="43" depart="22.9319" fromJunction="4way_7" toJunction="3way_3"/>
<trip id="44" depart="23.4652" fromJunction="3way_9" toJunction="3way_23"/>
<trip id="45" depart="23.9985" fromJunction="3way_1" toJunction="4way_6"/>
<trip id="46" depart="24.5318" fromJunction="3way_1" toJunction="4way_17"/>
<trip id="47" depart="25.0651" fromJunction="3way_19" toJunction="4way_16"/>
<trip id="48" depart="25.598399999999998" fromJunction="4way_18" toJunction="4way_7"/>
<trip id="49" depart="26.1317" fromJunction="4way_6" toJunction="3way_19"/>
<trip id="50" depart="26.665" fromJunction="4way_18" toJunction="3way_14"/>
<trip id="51" depart="27.1983" fromJunction="4way_17" toJunction="3way_15"/>
<trip id="52" depart="27.7316" fromJunction="3way_23" toJunction="4way_16"/>
<trip id="53" depart="28.2649" fromJunction="3way_21" toJunction="4way_17"/>
<trip id="54" depart="28.7982" fromJunction="4way_6" toJunction="4way_8"/>
<trip id="55" depart="29.3315" fromJunction="4way_16" toJunction="4way_8"/>
<trip id="56" depart="29.8648" fromJunction="3way_10" toJunction="4way_7"/>
<trip id="57" depart="30.3981" fromJunction="4way_11" toJunction="4way_18"/>
<trip id="58" depart="30.9314" fromJunction="4way_6" toJunction="3way_21"/>
<trip id="59" depart="31.4647" fromJunction="3way_23" toJunction="3way_1"/>
<trip id="60" depart="31.998" fromJunction="3way_23" toJunction="4way_11"/>
<trip id="61" depart="32.5313" fromJunction="3way_15" toJunction="4way_6"/>
<trip id="62" depart="33.0646" fromJunction="3way_23" toJunction="3way_3"/>
<trip id="63" depart="33.5979" fromJunction="4way_6" toJunction="3way_5"/>
<trip id="64" depart="34.1312" fromJunction="4way_11" toJunction="4way_6"/>
<trip id="65" depart="34.6645" fromJunction="3way_15" toJunction="4way_11"/>
<trip id="66" depart="35.1978" fromJunction="3way_22" toJunction="4way_8"/>
<trip id="67" depart="35.7311" fromJunction="4way_8" toJunction="3way_15"/>
<trip id="68" depart="36.2644" fromJunction="4way_16" toJunction="4way_12"/>
<trip id="69" depart="36.7977" fromJunction="4way_13" toJunction="3way_3"/>
<trip id="70" depart="37.331" fromJunction="4way_18" toJunction="4way_16"/>
<trip id="71" depart="37.8643" fromJunction="4way_8" toJunction="3way_9"/>
<trip id="72" depart="38.3976" fromJunction="4way_6" toJunction="3way_9"/>
<trip id="73" depart="38.9309" fromJunction="4way_17" toJunction="3way_3"/>
<trip id="74" depart="39.4642" fromJunction="3way_5" toJunction="4way_12"/>
<trip id="75" depart="39.9975" fromJunction="3way_2" toJunction="3way_21"/>
<trip id="76" depart="40.5308" fromJunction="3way_15" toJunction="4way_16"/>
<trip id="77" depart="41.064099999999996" fromJunction="4way_8" toJunction="4way_7"/>
<trip id="78" depart="41.5974" fromJunction="4way_17" toJunction="4way_18"/>
<trip id="79" depart="42.1307" fromJunction="3way_22" toJunction="3way_1"/>
<trip id="80" depart="42.664" fromJunction="3way_9" toJunction="4way_7"/>
<trip id="81" depart="43.1973" fromJunction="3way_2" toJunction="3way_10"/>
<trip id="82" depart="43.7306" fromJunction="3way_1" toJunction="3way_14"/>
<trip id="83" depart="44.2639" fromJunction="3way_14" toJunction="4way_12"/>
<trip id="84" depart="44.7972" fromJunction="4way_13" toJunction="3way_22"/>
<trip id="85" depart="45.3305" fromJunction="3way_1" toJunction="4way_16"/>
<trip id="86" depart="45.8638" fromJunction="4way_11" toJunction="3way_9"/>
<trip id="87" depart="46.3971" fromJunction="3way_14" toJunction="4way_6"/>
<trip id="88" depart="46.9304" fromJunction="4way_6" toJunction="4way_13"/>
<trip id="89" depart="47.4637" fromJunction="4way_6" toJunction="3way_5"/>
<trip id="90" depart="47.997" fromJunction="3way_23" toJunction="4way_7"/>
<trip id="91" depart="48.5303" fromJunction="3way_14" toJunction="3way_21"/>
<trip id="92" depart="49.0636" fromJunction="4way_13" toJunction="3way_9"/>
<trip id="93" depart="49.5969" fromJunction="3way_10" toJunction="4way_7"/>
<trip id="94" depart="50.1302" fromJunction="3way_19" toJunction="3way_14"/>
<trip id="95" depart="50.6635" fromJunction="3way_15" toJunction="3way_2"/>
<trip id="96" depart="51.196799999999996" fromJunction="4way_16" toJunction="3way_23"/>
<trip id="97" depart="51.7301" fromJunction="3way_9" toJunction="3way_22"/>
<trip id="98" depart="52.2634" fromJunction="3way_2" toJunction="3way_1"/>
<trip id="99" depart="52.7967" fromJunction="3way_15" toJunction="4way_16"/>
<trip id="100" depart="53.33" fromJunction="4way_8" toJunction="3way_5"/>
<trip id="101" depart="53.8633" fromJunction="3way_14" toJunction="4way_18"/>
<trip id="102" depart="54.3966" fromJunction="3way_19" toJunction="4way_11"/>
<trip id="103" depart="54.929899999999996" fromJunction="4way_7" toJunction="3way_1"/>
<trip id="104" depart="55.4632" fromJunction="3way_21" toJunction="3way_23"/>
<trip id="105" depart="55.9965" fromJunction="4way_17" toJunction="4way_6"/>
<trip id="106" depart="56.5298" fromJunction="4way_8" toJunction="4way_11"/>
<trip id="107" depart="57.0631" fromJunction="4way_12" toJunction="3way_19"/>
<trip id="108" depart="57.5964" fromJunction="4way_18" toJunction="3way_9"/>
<trip id="109" depart="58.1297" fromJunction="3way_14" toJunction="4way_16"/>
<trip id="110" depart="58.663" fromJunction="4way_7" toJunction="4way_13"/>
<trip id="111" depart="59.1963" fromJunction="3way_14" toJunction="3way_19"/>
<trip id="112" depart="59.7296" fromJunction="3way_1" toJunction="3way_10"/>
<trip id="113" depart="60.2629" fromJunction="3way_21" toJunction="3way_14"/>
<trip id="114" depart="60.7962" fromJunction="3way_15" toJunction="3way_22"/>
<trip id="115" depart="61.3295" fromJunction="4way_6" toJunction="3way_19"/>
<trip id="116" depart="61.8628" fromJunction="3way_3" toJunction="4way_8"/>
<trip id="117" depart="62.3961" fromJunction="3way_3" toJunction="3way_10"/>
<trip id="118" depart="62.9294" fromJunction="3way_21" toJunction="4way_7"/>
<trip id="119" depart="63.4627" fromJunction="3way_9" toJunction="3way_5"/>
<trip id="120" depart="63.996" fromJunction="3way_10" toJunction="3way_9"/>
<trip id="121" depart="64.5293" fromJunction="4way_13" toJunction="3way_22"/>
<trip id="122" depart="65.0626" fromJunction="4way_7" toJunction="4way_12"/>
<trip id="123" depart="65.5959" fromJunction="3way_2" toJunction="4way_8"/>
<trip id="124" depart="66.1292" fromJunction="4way_6" toJunction="3way_5"/>
<trip id="125" depart="66.6625" fromJunction="3way_23" toJunction="4way_18"/>
<trip id="126" depart="67.1958" fromJunction="3way_3" toJunction="3way_19"/>
<trip id="127" depart="67.7291" fromJunction="4way_13" toJunction="3way_1"/>
<trip id="128" depart="68.2624" fromJunction="4way_12" toJunction="4way_16"/>
<trip id="129" depart="68.7957" fromJunction="4way_6" toJunction="3way_19"/>
<trip id="130" depart="69.329" fromJunction="3way_10" toJunction="3way_2"/>
<trip id="131" depart="69.8623" fromJunction="4way_8" toJunction="4way_18"/>
<trip id="132" depart="70.3956" fromJunction="4way_18" toJunction="3way_22"/>
<trip id="133" depart="70.9289" fromJunction="4way_13" toJunction="3way_14"/>
<trip id="134" depart="71.4622" fromJunction="4way_12" toJunction="4way_13"/>
<trip id="135" depart="71.99549999999999" fromJunction="4way_8" toJunction="4way_11"/>
<trip id="136" depart="72.5288" fromJunction="4way_17" toJunction="3way_23"/>
<trip id="137" depart="73.0621" fromJunction="3way_1" toJunction="4way_6"/>
<trip id="138" depart="73.5954" fromJunction="3way_9" toJunction="3way_22"/>
<trip id="139" depart="74.1287" fromJunction="3way_10" toJunction="4way_18"/>
<trip id="140" depart="74.662" fromJunction="4way_11" toJunction="3way_10"/>
<trip id="141" depart="75.1953" fromJunction="3way_3" toJunction="3way_22"/>
<trip id="142" depart="75.7286" fromJunction="3way_9" toJunction="4way_17"/>
<trip id="143" depart="76.2619" fromJunction="3way_14" toJunction="3way_10"/>
<trip id="144" depart="76.7952" fromJunction="4way_8" toJunction="3way_3"/>
<trip id="145" depart="77.3285" fromJunction="4way_12" toJunction="4way_13"/>
<trip id="146" depart="77.8618" fromJunction="3way_2" toJunction="3way_23"/>
<trip id="147" depart="78.3951" fromJunction="3way_14" toJunction="3way_21"/>
<trip id="148" depart="78.9284" fromJunction="3way_2" toJunction="3way_3"/>
<trip id="149" depart="79.4617" fromJunction="3way_1" toJunction="4way_7"/>
<trip id="150" depart="79.995" fromJunction="3way_9" toJunction="4way_12"/>
<trip id="151" depart="80.5283" fromJunction="3way_19" toJunction="4way_16"/>
<trip id="152" depart="81.0616" fromJunction="3way_5" toJunction="3way_21"/>
<trip id="153" depart="81.5949" fromJunction="4way_7" toJunction="4way_8"/>
<trip id="154" depart="82.12819999999999" fromJunction="3way_3" toJunction="3way_19"/>
<trip id="155" depart="82.6615" fromJunction="3way_23" toJunction="3way_2"/>
<trip id="156" depart="83.1948" fromJunction="3way_15" toJunction="3way_19"/>
<trip id="157" depart="83.7281" fromJunction="3way_22" toJunction="3way_19"/>
<trip id="158" depart="84.2614" fromJunction="4way_12" toJunction="3way_9"/>
<trip id="159" depart="84.7947" fromJunction="4way_16" toJunction="3way_2"/>
<trip id="160" depart="85.328" fromJunction="3way_22" toJunction="3way_19"/>
<trip id="161" depart="85.8613" fromJunction="3way_19" toJunction="4way_6"/>
<trip id="162" depart="86.3946" fromJunction="3way_14" toJunction="3way_22"/>
<trip id="163" depart="86.9279" fromJunction="3way_1" toJunction="3way_15"/>
<trip id="164" depart="87.4612" fromJunction="3way_2" toJunction="4way_12"/>
<trip id="165" depart="87.9945" fromJunction="3way_23" toJunction="3way_10"/>
<trip id="166" depart="88.5278" fromJunction="4way_18" toJunction="4way_6"/>
<trip id="167" depart="89.0611" fromJunction="3way_1" toJunction="4way_11"/>
<trip id="168" depart="89.5944" fromJunction="3way_10" toJunction="3way_15"/>
<trip id="169" depart="90.1277" fromJunction="4way_16" toJunction="3way_5"/>
<trip id="170" depart="90.661" fromJunction="3way_3" toJunction="3way_19"/>
<trip id="171" depart="91.1943" fromJunction="4way_18" toJunction="3way_21"/>
<trip id="172" depart="91.7276" fromJunction="4way_8" toJunction="3way_9"/>
<trip id="173" depart="92.26089999999999" fromJunction="3way_15" toJunction="3way_5"/>
<trip id="174" depart="92.7942" fromJunction="3way_15" toJunction="4way_8"/>
<trip id="175" depart="93.3275" fromJunction="3way_21" toJunction="4way_7"/>
<trip id="176" depart="93.8608" fromJunction="4way_16" toJunction="4way_8"/>
<trip id="177" depart="94.3941" fromJunction="3way_23" toJunction="4way_16"/>
<trip id="178" depart="94.9274" fromJunction="4way_11" toJunction="4way_7"/>
<trip id="179" depart="95.4607" fromJunction="3way_9" toJunction="3way_19"/>
<trip id="180" depart="95.994" fromJunction="4way_18" toJunction="4way_12"/>
<trip id="181" depart="96.5273" fromJunction="4way_6" toJunction="3way_15"/>
<trip id="182" depart="97.0606" fromJunction="3way_15" toJunction="4way_8"/>
<trip id="183" depart="97.5939" fromJunction="4way_6" toJunction="4way_13"/>
<trip id="184" depart="98.1272" fromJunction="4way_13" toJunction="4way_17"/>
<trip id="185" depart="98.6605" fromJunction="3way_9" toJunction="4way_17"/>
<trip id="186" depart="99.1938" fromJunction="3way_21" toJunction="4way_11"/>
<trip id="187" depart="99.7271" fromJunction="3way_21" toJunction="3way_2"/>
<trip id="188" depart="100.2604" fromJunction="4way_17" toJunction="3way_19"/>
<trip id="189" depart="100.7937" fromJunction="4way_18" toJunction="3way_1"/>
<trip id="190" depart="101.327" fromJunction="3way_9" toJunction="3way_1"/>
<trip id="191" depart="101.8603" fromJunction="4way_13" toJunction="3way_21"/>
<trip id="192" depart="102.39359999999999" fromJunction="4way_13" toJunction="3way_3"/>
<trip id="193" depart="102.9269" fromJunction="3way_15" toJunction="4way_8"/>
<trip id="194" depart="103.4602" fromJunction="3way_14" toJunction="3way_23"/>
<trip id="195" depart="103.9935" fromJunction="3way_1" toJunction="4way_6"/>
<trip id="196" depart="104.5268" fromJunction="3way_15" toJunction="3way_1"/>
<trip id="197" depart="105.0601" fromJunction="3way_19" toJunction="3way_2"/>
<trip id="198" depart="105.5934" fromJunction="3way_19" toJunction="3way_14"/>
<trip id="199" depart="106.1267" fromJunction="3way_1" toJunction="3way_3"/>
<trip id="200" depart="106.66" fromJunction="4way_6" toJunction="3way_3"/>
<trip id="201" depart="107.1933" fromJunction="3way_9" toJunction="3way_21"/>
<trip id="202" depart="107.7266" fromJunction="3way_10" toJunction="4way_11"/>
<trip id="203" depart="108.2599" fromJunction="3way_2" toJunction="4way_18"/>
<trip id="204" depart="108.7932" fromJunction="3way_23" toJunction="4way_12"/>
<trip id="205" depart="109.3265" fromJunction="4way_11" toJunction="3way_19"/>
<trip id="206" depart="109.85979999999999" fromJunction="4way_11" toJunction="3way_19"/>
<trip id="207" depart="110.3931" fromJunction="3way_21" toJunction="3way_10"/>
<trip id="208" depart="110.9264" fromJunction="3way_23" toJunction="3way_5"/>
<trip id="209" depart="111.4597" fromJunction="3way_21" toJunction="4way_16"/>
<trip id="210" depart="111.993" fromJunction="4way_17" toJunction="3way_22"/>
<trip id="211" depart="112.5263" fromJunction="3way_1" toJunction="4way_13"/>
<trip id="212" depart="113.0596" fromJunction="3way_22" toJunction="3way_14"/>
<trip id="213" depart="113.5929" fromJunction="4way_18" toJunction="4way_17"/>
<trip id="214" depart="114.1262" fromJunction="4way_13" toJunction="4way_18"/>
<trip id="215" depart="114.6595" fromJunction="4way_18" toJunction="3way_23"/>
<trip id="216" depart="115.1928" fromJunction="3way_3" toJunction="3way_19"/>
<trip id="217" depart="115.7261" fromJunction="3way_14" toJunction="4way_13"/>
<trip id="218" depart="116.2594" fromJunction="3way_2" toJunction="4way_16"/>
<trip id="219" depart="116.7927" fromJunction="4way_8" toJunction="4way_7"/>
<trip id="220" depart="117.326" fromJunction="3way_22" toJunction="3way_19"/>
<trip id="221" depart="117.8593" fromJunction="4way_7" toJunction="3way_22"/>
<trip id="222" depart="118.3926" fromJunction="3way_9" toJunction="3way_14"/>
<trip id="223" depart="118.9259" fromJunction="3way_23" toJunction="3way_15"/>
<trip id="224" depart="119.4592" fromJunction="3way_14" toJunction="4way_17"/>
<trip id="225" depart="119.99249999999999" fromJunction="4way_13" toJunction="3way_10"/>
<trip id="226" depart="120.5258" fromJunction="4way_8" toJunction="4way_11"/>
<trip id="227" depart="121.0591" fromJunction="4way_7" toJunction="4way_13"/>
<trip id="228" depart="121.5924" fromJunction="4way_18" toJunction="4way_16"/>
<trip id="229" depart="122.1257" fromJunction="3way_15" toJunction="4way_18"/>
<trip id="230" depart="122.659" fromJunction="3way_23" toJunction="3way_2"/>
<trip id="231" depart="123.1923" fromJunction="3way_21" toJunction="3way_9"/>
<trip id="232" depart="123.7256" fromJunction="4way_6" toJunction="3way_3"/>
<trip id="233" depart="124.2589" fromJunction="4way_8" toJunction="3way_21"/>
<trip id="234" depart="124.7922" fromJunction="3way_5" toJunction="4way_18"/>
<trip id="235" depart="125.3255" fromJunction="4way_6" toJunction="3way_19"/>
<trip id="236" depart="125.8588" fromJunction="3way_21" toJunction="4way_8"/>
<trip id="237" depart="126.3921" fromJunction="3way_19" toJunction="3way_5"/>
<trip id="238" depart="126.9254" fromJunction="3way_21" toJunction="3way_15"/>
<trip id="239" depart="127.4587" fromJunction="3way_10" toJunction="3way_19"/>
<trip id="240" depart="127.992" fromJunction="3way_22" toJunction="3way_23"/>
<trip id="241" depart="128.5253" fromJunction="4way_7" toJunction="3way_5"/>
<trip id="242" depart="129.0586" fromJunction="4way_13" toJunction="3way_22"/>
<trip id="243" depart="129.5919" fromJunction="3way_2" toJunction="4way_8"/>
<trip id="244" depart="130.1252" fromJunction="3way_15" toJunction="3way_19"/>
<trip id="245" depart="130.6585" fromJunction="3way_22" toJunction="3way_3"/>
<trip id="246" depart="131.1918" fromJunction="4way_16" toJunction="4way_7"/>
<trip id="247" depart="131.7251" fromJunction="4way_16" toJunction="4way_11"/>
<trip id="248" depart="132.2584" fromJunction="3way_22" toJunction="3way_14"/>
<trip id="249" depart="132.7917" fromJunction="4way_8" toJunction="4way_16"/>
<trip id="250" depart="133.325" fromJunction="3way_19" toJunction="3way_5"/>
<trip id="251" depart="133.85829999999999" fromJunction="4way_16" toJunction="3way_1"/>
<trip id="252" depart="134.3916" fromJunction="3way_22" toJunction="3way_1"/>
<trip id="253" depart="134.9249" fromJunction="4way_13" toJunction="3way_5"/>
<trip id="254" depart="135.4582" fromJunction="3way_21" toJunction="3way_2"/>
<trip id="255" depart="135.9915" fromJunction="3way_22" toJunction="3way_1"/>
<trip id="256" depart="136.5248" fromJunction="3way_19" toJunction="4way_11"/>
<trip id="257" depart="137.0581" fromJunction="3way_3" toJunction="3way_14"/>
<trip id="258" depart="137.5914" fromJunction="4way_16" toJunction="4way_6"/>
<trip id="259" depart="138.1247" fromJunction="4way_13" toJunction="4way_16"/>
<trip id="260" depart="138.658" fromJunction="4way_11" toJunction="3way_1"/>
<trip id="261" depart="139.1913" fromJunction="3way_1" toJunction="4way_18"/>
<trip id="262" depart="139.7246" fromJunction="4way_17" toJunction="4way_16"/>
<trip id="263" depart="140.2579" fromJunction="3way_22" toJunction="3way_10"/>
<trip id="264" depart="140.7912" fromJunction="3way_3" toJunction="4way_12"/>
<trip id="265" depart="141.3245" fromJunction="3way_10" toJunction="3way_15"/>
<trip id="266" depart="141.8578" fromJunction="3way_2" toJunction="4way_16"/>
<trip id="267" depart="142.3911" fromJunction="3way_21" toJunction="3way_14"/>
<trip id="268" depart="142.9244" fromJunction="4way_8" toJunction="4way_11"/>
<trip id="269" depart="143.4577" fromJunction="3way_3" toJunction="4way_6"/>
<trip id="270" depart="143.99099999999999" fromJunction="4way_8" toJunction="4way_18"/>
<trip id="271" depart="144.5243" fromJunction="4way_13" toJunction="3way_10"/>
<trip id="272" depart="145.0576" fromJunction="4way_13" toJunction="3way_5"/>
<trip id="273" depart="145.5909" fromJunction="4way_18" toJunction="4way_17"/>
<trip id="274" depart="146.1242" fromJunction="3way_1" toJunction="4way_13"/>
<trip id="275" depart="146.6575" fromJunction="3way_21" toJunction="3way_9"/>
<trip id="276" depart="147.1908" fromJunction="3way_23" toJunction="4way_13"/>
<trip id="277" depart="147.7241" fromJunction="4way_8" toJunction="3way_9"/>
<trip id="278" depart="148.2574" fromJunction="4way_13" toJunction="3way_15"/>
<trip id="279" depart="148.7907" fromJunction="4way_11" toJunction="3way_9"/>
<trip id="280" depart="149.324" fromJunction="3way_2" toJunction="3way_15"/>
<trip id="281" depart="149.8573" fromJunction="3way_19" toJunction="4way_16"/>
<trip id="282" depart="150.3906" fromJunction="3way_2" toJunction="3way_1"/>
<trip id="283" depart="150.9239" fromJunction="4way_13" toJunction="3way_2"/>
<trip id="284" depart="151.4572" fromJunction="4way_8" toJunction="4way_7"/>
<trip id="285" depart="151.9905" fromJunction="3way_5" toJunction="4way_16"/>
<trip id="286" depart="152.5238" fromJunction="4way_18" toJunction="3way_23"/>
<trip id="287" depart="153.0571" fromJunction="3way_15" toJunction="3way_22"/>
<trip id="288" depart="153.5904" fromJunction="4way_18" toJunction="3way_22"/>
<trip id="289" depart="154.12369999999999" fromJunction="3way_23" toJunction="3way_9"/>
<trip id="290" depart="154.657" fromJunction="3way_2" toJunction="4way_16"/>
<trip id="291" depart="155.1903" fromJunction="3way_10" toJunction="4way_6"/>
<trip id="292" depart="155.7236" fromJunction="3way_22" toJunction="3way_10"/>
<trip id="293" depart="156.2569" fromJunction="3way_22" toJunction="3way_15"/>
<trip id="294" depart="156.7902" fromJunction="3way_3" toJunction="4way_18"/>
<trip id="295" depart="157.3235" fromJunction="3way_22" toJunction="3way_3"/>
<trip id="296" depart="157.8568" fromJunction="4way_11" toJunction="4way_6"/>
<trip id="297" depart="158.3901" fromJunction="4way_18" toJunction="3way_21"/>
<trip id="298" depart="158.9234" fromJunction="4way_7" toJunction="3way_22"/>
<trip id="299" depart="159.4567" fromJunction="4way_17" toJunction="4way_11"/>
<trip id="300" depart="159.99" fromJunction="4way_8" toJunction="4way_18"/>
<trip id="301" depart="160.5233" fromJunction="4way_16" toJunction="4way_12"/>
<trip id="302" depart="161.0566" fromJunction="3way_9" toJunction="3way_22"/>
<trip id="303" depart="161.5899" fromJunction="3way_19" toJunction="3way_2"/>
<trip id="304" depart="162.1232" fromJunction="3way_10" toJunction="3way_15"/>
<trip id="305" depart="162.6565" fromJunction="4way_18" toJunction="4way_12"/>
<trip id="306" depart="163.1898" fromJunction="4way_7" toJunction="4way_6"/>
<trip id="307" depart="163.7231" fromJunction="4way_13" toJunction="4way_17"/>
<trip id="308" depart="164.25639999999999" fromJunction="3way_21" toJunction="4way_18"/>
<trip id="309" depart="164.7897" fromJunction="3way_9" toJunction="3way_22"/>
<trip id="310" depart="165.323" fromJunction="4way_11" toJunction="4way_16"/>
<trip id="311" depart="165.8563" fromJunction="3way_3" toJunction="4way_8"/>
<trip id="312" depart="166.3896" fromJunction="4way_6" toJunction="3way_10"/>
<trip id="313" depart="166.9229" fromJunction="3way_9" toJunction="3way_19"/>
<trip id="314" depart="167.4562" fromJunction="3way_2" toJunction="4way_8"/>
<trip id="315" depart="167.9895" fromJunction="3way_3" toJunction="3way_15"/>
<trip id="316" depart="168.5228" fromJunction="4way_18" toJunction="3way_15"/>
<trip id="317" depart="169.0561" fromJunction="4way_17" toJunction="3way_21"/>
<trip id="318" depart="169.5894" fromJunction="3way_19" toJunction="3way_3"/>
<trip id="319" depart="170.1227" fromJunction="3way_22" toJunction="4way_16"/>
<trip id="320" depart="170.656" fromJunction="4way_11" toJunction="4way_16"/>
<trip id="321" depart="171.1893" fromJunction="3way_15" toJunction="3way_21"/>
<trip id="322" depart="171.7226" fromJunction="3way_2" toJunction="4way_6"/>
<trip id="323" depart="172.2559" fromJunction="4way_11" toJunction="4way_17"/>
<trip id="324" depart="172.7892" fromJunction="3way_5" toJunction="4way_7"/>
<trip id="325" depart="173.3225" fromJunction="3way_21" toJunction="3way_3"/>
<trip id="326" depart="173.8558" fromJunction="3way_23" toJunction="3way_21"/>
<trip id="327" depart="174.38909999999998" fromJunction="4way_7" toJunction="3way_1"/>
<trip id="328" depart="174.9224" fromJunction="4way_6" toJunction="3way_3"/>
<trip id="329" depart="175.4557" fromJunction="4way_11" toJunction="4way_16"/>
<trip id="330" depart="175.989" fromJunction="3way_3" toJunction="4way_18"/>
<trip id="331" depart="176.5223" fromJunction="3way_1" toJunction="4way_8"/>
<trip id="332" depart="177.0556" fromJunction="3way_21" toJunction="3way_5"/>
<trip id="333" depart="177.5889" fromJunction="3way_22" toJunction="3way_5"/>
<trip id="334" depart="178.1222" fromJunction="3way_1" toJunction="3way_14"/>
<trip id="335" depart="178.6555" fromJunction="4way_17" toJunction="3way_10"/>
<trip id="336" depart="179.1888" fromJunction="3way_14" toJunction="3way_22"/>
<trip id="337" depart="179.7221" fromJunction="3way_3" toJunction="3way_14"/>
<trip id="338" depart="180.2554" fromJunction="3way_2" toJunction="3way_19"/>
<trip id="339" depart="180.7887" fromJunction="4way_17" toJunction="3way_2"/>
<trip id="340" depart="181.322" fromJunction="3way_5" toJunction="3way_9"/>
<trip id="341" depart="181.8553" fromJunction="3way_15" toJunction="4way_12"/>
<trip id="342" depart="182.3886" fromJunction="3way_14" toJunction="3way_9"/>
<trip id="343" depart="182.9219" fromJunction="3way_5" toJunction="3way_15"/>
<trip id="344" depart="183.4552" fromJunction="4way_12" toJunction="3way_22"/>
<trip id="345" depart="183.9885" fromJunction="4way_13" toJunction="4way_7"/>
<trip id="346" depart="184.52179999999998" fromJunction="4way_8" toJunction="3way_1"/>
<trip id="347" depart="185.0551" fromJunction="4way_8" toJunction="3way_21"/>
<trip id="348" depart="185.5884" fromJunction="4way_18" toJunction="4way_16"/>
<trip id="349" depart="186.1217" fromJunction="3way_22" toJunction="4way_7"/>
<trip id="350" depart="186.655" fromJunction="3way_22" toJunction="3way_10"/>
<trip id="351" depart="187.1883" fromJunction="3way_19" toJunction="3way_22"/>
<trip id="352" depart="187.7216" fromJunction="4way_16" toJunction="3way_10"/>
<trip id="353" depart="188.2549" fromJunction="3way_5" toJunction="3way_19"/>
<trip id="354" depart="188.7882" fromJunction="3way_9" toJunction="3way_3"/>
<trip id="355" depart="189.3215" fromJunction="4way_18" toJunction="3way_1"/>
<trip id="356" depart="189.8548" fromJunction="3way_9" toJunction="3way_1"/>
<trip id="357" depart="190.3881" fromJunction="3way_2" toJunction="4way_6"/>
<trip id="358" depart="190.9214" fromJunction="4way_7" toJunction="4way_8"/>
<trip id="359" depart="191.4547" fromJunction="3way_10" toJunction="4way_18"/>
<trip id="360" depart="191.988" fromJunction="3way_5" toJunction="3way_23"/>
<trip id="361" depart="192.5213" fromJunction="3way_10" toJunction="4way_13"/>
<trip id="362" depart="193.0546" fromJunction="4way_8" toJunction="3way_19"/>
<trip id="363" depart="193.5879" fromJunction="3way_1" toJunction="3way_22"/>
<trip id="364" depart="194.1212" fromJunction="3way_23" toJunction="3way_19"/>
<trip id="365" depart="194.65449999999998" fromJunction="3way_15" toJunction="4way_8"/>
<trip id="366" depart="195.1878" fromJunction="3way_22" toJunction="3way_15"/>
<trip id="367" depart="195.7211" fromJunction="4way_13" toJunction="4way_8"/>
<trip id="368" depart="196.2544" fromJunction="3way_22" toJunction="4way_18"/>
<trip id="369" depart="196.7877" fromJunction="4way_12" toJunction="4way_18"/>
<trip id="370" depart="197.321" fromJunction="3way_19" toJunction="4way_16"/>
<trip id="371" depart="197.8543" fromJunction="3way_9" toJunction="3way_14"/>
<trip id="372" depart="198.3876" fromJunction="3way_23" toJunction="4way_13"/>
<trip id="373" depart="198.9209" fromJunction="3way_10" toJunction="3way_15"/>
<trip id="374" depart="199.4542" fromJunction="4way_17" toJunction="4way_12"/>
<trip id="375" depart="199.9875" fromJunction="3way_21" toJunction="3way_3"/>
<trip id="376" depart="200.5208" fromJunction="3way_9" toJunction="3way_3"/>
<trip id="377" depart="201.0541" fromJunction="3way_2" toJunction="3way_23"/>
<trip id="378" depart="201.5874" fromJunction="3way_3" toJunction="3way_21"/>
<trip id="379" depart="202.1207" fromJunction="3way_19" toJunction="3way_5"/>
<trip id="380" depart="202.654" fromJunction="3way_3" toJunction="4way_6"/>
<trip id="381" depart="203.1873" fromJunction="4way_13" toJunction="4way_18"/>
<trip id="382" depart="203.7206" fromJunction="3way_19" toJunction="3way_21"/>