<?xml version="1.0" encoding="UTF-8"?>

<!-- generated on 2023-07-27 03:23:17 by Eclipse SUMO netconvert Version 1.12.0
<configuration xmlns:xsi="http://www.w3.org/2001/XMLSchema-instance" xsi:noNamespaceSchemaLocation="http://sumo.dlr.de/xsd/netconvertConfiguration.xsd">

    <input>
        <node-files value="sq.nod.xml"/>
        <edge-files value="sq.edg.xml"/>
    </input>

    <output>
        <output-file value="sq.tmp.net.xml"/>
    </output>

    <processing>
        <lefthand value="true"/>
    </processing>

    <tls_building>
        <tls.discard-simple value="true"/>
        <tls.join value="true"/>
    </tls_building>

    <edge_removal>
        <keep-edges.components value="1"/>
    </edge_removal>

    <junctions>
        <no-turnarounds value="true"/>
    </junctions>

    <report>
        <aggregate-warnings value="5"/>
    </report>

</configuration>
-->

<net version="1.9" junctionCornerDetail="5" lefthand="true" limitTurnSpeed="5.50" xmlns:xsi="http://www.w3.org/2001/XMLSchema-instance" xsi:noNamespaceSchemaLocation="http://sumo.dlr.de/xsd/net_file.xsd">

    <location netOffset="0.00,400.00" convBoundary="0.00,-0.00,400.00,400.00" origBoundary="0.00,-400.00,400.00,0.00" projParameter="!"/>

    <edge id=":3way_1_0" function="internal">
        <lane id=":3way_1_0_0" index="0" speed="6.51" length="9.03" shape="98.40,392.80 98.05,395.25 97.00,397.00 95.25,398.05 92.80,398.40"/>
    </edge>
    <edge id=":3way_1_1" function="internal">
        <lane id=":3way_1_1_0" index="0" speed="8.00" length="14.19" shape="98.40,392.80 98.95,396.65 100.60,399.40 103.35,401.05 107.20,401.60"/>
    </edge>
    <edge id=":3way_1_2" function="internal">
        <lane id=":3way_1_2_0" index="0" speed="6.51" length="9.03" shape="107.20,398.40 104.75,398.05 103.00,397.00 101.95,395.25 101.60,392.80"/>
    </edge>
    <edge id=":3way_1_3" function="internal">
        <lane id=":3way_1_3_0" index="0" speed="13.89" length="14.40" shape="107.20,398.40 92.80,398.40"/>
    </edge>
    <edge id=":3way_1_4" function="internal">
        <lane id=":3way_1_4_0" index="0" speed="13.89" length="14.40" shape="92.80,401.60 107.20,401.60"/>
    </edge>
    <edge id=":3way_1_5" function="internal">
        <lane id=":3way_1_5_0" index="0" speed="8.00" length="4.07" shape="92.80,401.60 96.65,401.05 96.80,400.96"/>
    </edge>
    <edge id=":3way_1_6" function="internal">
        <lane id=":3way_1_6_0" index="0" speed="8.00" length="10.13" shape="96.80,400.96 99.40,399.40 101.05,396.65 101.60,392.80"/>
    </edge>
    <edge id=":3way_10_0" function="internal">
        <lane id=":3way_10_0_0" index="0" speed="13.89" length="14.40" shape="-1.60,192.80 -1.60,207.20"/>
    </edge>
    <edge id=":3way_10_1" function="internal">
        <lane id=":3way_10_1_0" index="0" speed="8.00" length="4.07" shape="-1.60,192.80 -1.05,196.65 -0.96,196.80"/>
    </edge>
    <edge id=":3way_10_6" function="internal">
        <lane id=":3way_10_6_0" index="0" speed="8.00" length="10.13" shape="-0.96,196.80 0.60,199.40 3.35,201.05 7.20,201.60"/>
    </edge>
    <edge id=":3way_10_2" function="internal">
        <lane id=":3way_10_2_0" index="0" speed="6.51" length="9.03" shape="7.20,198.40 4.75,198.05 3.00,197.00 1.95,195.25 1.60,192.80"/>
    </edge>
    <edge id=":3way_10_3" function="internal">
        <lane id=":3way_10_3_0" index="0" speed="8.00" length="14.19" shape="7.20,198.40 3.35,198.95 0.60,200.60 -1.05,203.35 -1.60,207.20"/>
    </edge>
    <edge id=":3way_10_4" function="internal">
        <lane id=":3way_10_4_0" index="0" speed="6.51" length="9.03" shape="1.60,207.20 1.95,204.75 3.00,203.00 4.75,201.95 7.20,201.60"/>
    </edge>
    <edge id=":3way_10_5" function="internal">
        <lane id=":3way_10_5_0" index="0" speed="13.89" length="14.40" shape="1.60,207.20 1.60,192.80"/>
    </edge>
    <edge id=":3way_14_0" function="internal">
        <lane id=":3way_14_0_0" index="0" speed="6.51" length="9.03" shape="398.40,192.80 398.05,195.25 397.00,197.00 395.25,198.05 392.80,198.40"/>
    </edge>
    <edge id=":3way_14_1" function="internal">
        <lane id=":3way_14_1_0" index="0" speed="13.89" length="14.40" shape="398.40,192.80 398.40,207.20"/>
    </edge>
    <edge id=":3way_14_2" function="internal">
        <lane id=":3way_14_2_0" index="0" speed="13.89" length="14.40" shape="401.60,207.20 401.60,192.80"/>
    </edge>
    <edge id=":3way_14_3" function="internal">
        <lane id=":3way_14_3_0" index="0" speed="8.00" length="4.07" shape="401.60,207.20 401.05,203.35 400.96,203.20"/>
    </edge>
    <edge id=":3way_14_6" function="internal">
        <lane id=":3way_14_6_0" index="0" speed="8.00" length="10.13" shape="400.96,203.20 399.40,200.60 396.65,198.95 392.80,198.40"/>
    </edge>
    <edge id=":3way_14_4" function="internal">
        <lane id=":3way_14_4_0" index="0" speed="6.51" length="9.03" shape="392.80,201.60 395.25,201.95 397.00,203.00 398.05,204.75 398.40,207.20"/>
    </edge>
    <edge id=":3way_14_5" function="internal">
        <lane id=":3way_14_5_0" index="0" speed="8.00" length="14.19" shape="392.80,201.60 396.65,201.05 399.40,199.40 401.05,196.65 401.60,192.80"/>
    </edge>
    <edge id=":3way_15_0" function="internal">
        <lane id=":3way_15_0_0" index="0" speed="13.89" length="14.40" shape="-1.60,92.80 -1.60,107.20"/>
    </edge>
    <edge id=":3way_15_1" function="internal">
        <lane id=":3way_15_1_0" index="0" speed="8.00" length="4.07" shape="-1.60,92.80 -1.05,96.65 -0.96,96.80"/>
    </edge>
    <edge id=":3way_15_6" function="internal">
        <lane id=":3way_15_6_0" index="0" speed="8.00" length="10.13" shape="-0.96,96.80 0.60,99.40 3.35,101.05 7.20,101.60"/>
    </edge>
    <edge id=":3way_15_2" function="internal">
        <lane id=":3way_15_2_0" index="0" speed="6.51" length="9.03" shape="7.20,98.40 4.75,98.05 3.00,97.00 1.95,95.25 1.60,92.80"/>
    </edge>
    <edge id=":3way_15_3" function="internal">
        <lane id=":3way_15_3_0" index="0" speed="8.00" length="14.19" shape="7.20,98.40 3.35,98.95 0.60,100.60 -1.05,103.35 -1.60,107.20"/>
    </edge>
    <edge id=":3way_15_4" function="internal">
        <lane id=":3way_15_4_0" index="0" speed="6.51" length="9.03" shape="1.60,107.20 1.95,104.75 3.00,103.00 4.75,101.95 7.20,101.60"/>
    </edge>
    <edge id=":3way_15_5" function="internal">
        <lane id=":3way_15_5_0" index="0" speed="13.89" length="14.40" shape="1.60,107.20 1.60,92.80"/>
    </edge>
    <edge id=":3way_19_0" function="internal">
        <lane id=":3way_19_0_0" index="0" speed="6.51" length="9.03" shape="398.40,92.80 398.05,95.25 397.00,97.00 395.25,98.05 392.80,98.40"/>
    </edge>
    <edge id=":3way_19_1" function="internal">
        <lane id=":3way_19_1_0" index="0" speed="13.89" length="14.40" shape="398.40,92.80 398.40,107.20"/>
    </edge>
    <edge id=":3way_19_2" function="internal">
        <lane id=":3way_19_2_0" index="0" speed="13.89" length="14.40" shape="401.60,107.20 401.60,92.80"/>
    </edge>
    <edge id=":3way_19_3" function="internal">
        <lane id=":3way_19_3_0" index="0" speed="8.00" length="4.07" shape="401.60,107.20 401.05,103.35 400.96,103.20"/>
    </edge>
    <edge id=":3way_19_6" function="internal">
        <lane id=":3way_19_6_0" index="0" speed="8.00" length="10.13" shape="400.96,103.20 399.40,100.60 396.65,98.95 392.80,98.40"/>
    </edge>
    <edge id=":3way_19_4" function="internal">
        <lane id=":3way_19_4_0" index="0" speed="6.51" length="9.03" shape="392.80,101.60 395.25,101.95 397.00,103.00 398.05,104.75 398.40,107.20"/>
    </edge>
    <edge id=":3way_19_5" function="internal">
        <lane id=":3way_19_5_0" index="0" speed="8.00" length="14.19" shape="392.80,101.60 396.65,101.05 399.40,99.40 401.05,96.65 401.60,92.80"/>
    </edge>
    <edge id=":3way_2_0" function="internal">
        <lane id=":3way_2_0_0" index="0" speed="6.51" length="9.03" shape="198.40,392.80 198.05,395.25 197.00,397.00 195.25,398.05 192.80,398.40"/>
    </edge>
    <edge id=":3way_2_1" function="internal">
        <lane id=":3way_2_1_0" index="0" speed="8.00" length="14.19" shape="198.40,392.80 198.95,396.65 200.60,399.40 203.35,401.05 207.20,401.60"/>
    </edge>
    <edge id=":3way_2_2" function="internal">
        <lane id=":3way_2_2_0" index="0" speed="6.51" length="9.03" shape="207.20,398.40 204.75,398.05 203.00,397.00 201.95,395.25 201.60,392.80"/>
    </edge>
    <edge id=":3way_2_3" function="internal">
        <lane id=":3way_2_3_0" index="0" speed="13.89" length="14.40" shape="207.20,398.40 192.80,398.40"/>
    </edge>
    <edge id=":3way_2_4" function="internal">
        <lane id=":3way_2_4_0" index="0" speed="13.89" length="14.40" shape="192.80,401.60 207.20,401.60"/>
    </edge>
    <edge id=":3way_2_5" function="internal">
        <lane id=":3way_2_5_0" index="0" speed="8.00" length="4.07" shape="192.80,401.60 196.65,401.05 196.80,400.96"/>
    </edge>
    <edge id=":3way_2_6" function="internal">
        <lane id=":3way_2_6_0" index="0" speed="8.00" length="10.13" shape="196.80,400.96 199.40,399.40 201.05,396.65 201.60,392.80"/>
    </edge>
    <edge id=":3way_21_0" function="internal">
        <lane id=":3way_21_0_0" index="0" speed="13.89" length="14.40" shape="107.20,-1.60 92.80,-1.60"/>
    </edge>
    <edge id=":3way_21_1" function="internal">
        <lane id=":3way_21_1_0" index="0" speed="8.00" length="4.07" shape="107.20,-1.60 103.35,-1.05 103.20,-0.96"/>
    </edge>
    <edge id=":3way_21_6" function="internal">
        <lane id=":3way_21_6_0" index="0" speed="8.00" length="10.13" shape="103.20,-0.96 100.60,0.60 98.95,3.35 98.40,7.20"/>
    </edge>
    <edge id=":3way_21_2" function="internal">
        <lane id=":3way_21_2_0" index="0" speed="6.51" length="9.03" shape="101.60,7.20 101.95,4.75 103.00,3.00 104.75,1.95 107.20,1.60"/>
    </edge>
    <edge id=":3way_21_3" function="internal">
        <lane id=":3way_21_3_0" index="0" speed="8.00" length="14.19" shape="101.60,7.20 101.05,3.35 99.40,0.60 96.65,-1.05 92.80,-1.60"/>
    </edge>
    <edge id=":3way_21_4" function="internal">
        <lane id=":3way_21_4_0" index="0" speed="6.51" length="9.03" shape="92.80,1.60 95.25,1.95 97.00,3.00 98.05,4.75 98.40,7.20"/>
    </edge>
    <edge id=":3way_21_5" function="internal">
        <lane id=":3way_21_5_0" index="0" speed="13.89" length="14.40" shape="92.80,1.60 107.20,1.60"/>
    </edge>
    <edge id=":3way_22_0" function="internal">
        <lane id=":3way_22_0_0" index="0" speed="13.89" length="14.40" shape="207.20,-1.60 192.80,-1.60"/>
    </edge>
    <edge id=":3way_22_1" function="internal">
        <lane id=":3way_22_1_0" index="0" speed="8.00" length="4.07" shape="207.20,-1.60 203.35,-1.05 203.20,-0.96"/>
    </edge>
    <edge id=":3way_22_6" function="internal">
        <lane id=":3way_22_6_0" index="0" speed="8.00" length="10.13" shape="203.20,-0.96 200.60,0.60 198.95,3.35 198.40,7.20"/>
    </edge>
    <edge id=":3way_22_2" function="internal">
        <lane id=":3way_22_2_0" index="0" speed="6.51" length="9.03" shape="201.60,7.20 201.95,4.75 203.00,3.00 204.75,1.95 207.20,1.60"/>
    </edge>
    <edge id=":3way_22_3" function="internal">
        <lane id=":3way_22_3_0" index="0" speed="8.00" length="14.19" shape="201.60,7.20 201.05,3.35 199.40,0.60 196.65,-1.05 192.80,-1.60"/>
    </edge>
    <edge id=":3way_22_4" function="internal">
        <lane id=":3way_22_4_0" index="0" speed="6.51" length="9.03" shape="192.80,1.60 195.25,1.95 197.00,3.00 198.05,4.75 198.40,7.20"/>
    </edge>
    <edge id=":3way_22_5" function="internal">
        <lane id=":3way_22_5_0" index="0" speed="13.89" length="14.40" shape="192.80,1.60 207.20,1.60"/>
    </edge>
    <edge id=":3way_23_0" function="internal">
        <lane id=":3way_23_0_0" index="0" speed="13.89" length="14.40" shape="307.20,-1.60 292.80,-1.60"/>
    </edge>
    <edge id=":3way_23_1" function="internal">
        <lane id=":3way_23_1_0" index="0" speed="8.00" length="4.07" shape="307.20,-1.60 303.35,-1.05 303.20,-0.96"/>
    </edge>
    <edge id=":3way_23_6" function="internal">
        <lane id=":3way_23_6_0" index="0" speed="8.00" length="10.13" shape="303.20,-0.96 300.60,0.60 298.95,3.35 298.40,7.20"/>
    </edge>
    <edge id=":3way_23_2" function="internal">
        <lane id=":3way_23_2_0" index="0" speed="6.51" length="9.03" shape="301.60,7.20 301.95,4.75 303.00,3.00 304.75,1.95 307.20,1.60"/>
    </edge>
    <edge id=":3way_23_3" function="internal">
        <lane id=":3way_23_3_0" index="0" speed="8.00" length="14.19" shape="301.60,7.20 301.05,3.35 299.40,0.60 296.65,-1.05 292.80,-1.60"/>
    </edge>
    <edge id=":3way_23_4" function="internal">
        <lane id=":3way_23_4_0" index="0" speed="6.51" length="9.03" shape="292.80,1.60 295.25,1.95 297.00,3.00 298.05,4.75 298.40,7.20"/>
    </edge>
    <edge id=":3way_23_5" function="internal">
        <lane id=":3way_23_5_0" index="0" speed="13.89" length="14.40" shape="292.80,1.60 307.20,1.60"/>
    </edge>
    <edge id=":3way_3_0" function="internal">
        <lane id=":3way_3_0_0" index="0" speed="6.51" length="9.03" shape="298.40,392.80 298.05,395.25 297.00,397.00 295.25,398.05 292.80,398.40"/>
    </edge>
    <edge id=":3way_3_1" function="internal">
        <lane id=":3way_3_1_0" index="0" speed="8.00" length="14.19" shape="298.40,392.80 298.95,396.65 300.60,399.40 303.35,401.05 307.20,401.60"/>
    </edge>
    <edge id=":3way_3_2" function="internal">
        <lane id=":3way_3_2_0" index="0" speed="6.51" length="9.03" shape="307.20,398.40 304.75,398.05 303.00,397.00 301.95,395.25 301.60,392.80"/>
    </edge>
    <edge id=":3way_3_3" function="internal">
        <lane id=":3way_3_3_0" index="0" speed="13.89" length="14.40" shape="307.20,398.40 292.80,398.40"/>
    </edge>
    <edge id=":3way_3_4" function="internal">
        <lane id=":3way_3_4_0" index="0" speed="13.89" length="14.40" shape="292.80,401.60 307.20,401.60"/>
    </edge>
    <edge id=":3way_3_5" function="internal">
        <lane id=":3way_3_5_0" index="0" speed="8.00" length="4.07" shape="292.80,401.60 296.65,401.05 296.80,400.96"/>
    </edge>
    <edge id=":3way_3_6" function="internal">
        <lane id=":3way_3_6_0" index="0" speed="8.00" length="10.13" shape="296.80,400.96 299.40,399.40 301.05,396.65 301.60,392.80"/>
    </edge>
    <edge id=":3way_5_0" function="internal">
        <lane id=":3way_5_0_0" index="0" speed="13.89" length="14.40" shape="-1.60,292.80 -1.60,307.20"/>
    </edge>
    <edge id=":3way_5_1" function="internal">
        <lane id=":3way_5_1_0" index="0" speed="8.00" length="4.07" shape="-1.60,292.80 -1.05,296.65 -0.96,296.80"/>
    </edge>
    <edge id=":3way_5_6" function="internal">
        <lane id=":3way_5_6_0" index="0" speed="8.00" length="10.13" shape="-0.96,296.80 0.60,299.40 3.35,301.05 7.20,301.60"/>
    </edge>
    <edge id=":3way_5_2" function="internal">
        <lane id=":3way_5_2_0" index="0" speed="6.51" length="9.03" shape="7.20,298.40 4.75,298.05 3.00,297.00 1.95,295.25 1.60,292.80"/>
    </edge>
    <edge id=":3way_5_3" function="internal">
        <lane id=":3way_5_3_0" index="0" speed="8.00" length="14.19" shape="7.20,298.40 3.35,298.95 0.60,300.60 -1.05,303.35 -1.60,307.20"/>
    </edge>
    <edge id=":3way_5_4" function="internal">
        <lane id=":3way_5_4_0" index="0" speed="6.51" length="9.03" shape="1.60,307.20 1.95,304.75 3.00,303.00 4.75,301.95 7.20,301.60"/>
    </edge>
    <edge id=":3way_5_5" function="internal">
        <lane id=":3way_5_5_0" index="0" speed="13.89" length="14.40" shape="1.60,307.20 1.60,292.80"/>
    </edge>
    <edge id=":3way_9_0" function="internal">
        <lane id=":3way_9_0_0" index="0" speed="6.51" length="9.03" shape="398.40,292.80 398.05,295.25 397.00,297.00 395.25,298.05 392.80,298.40"/>
    </edge>
    <edge id=":3way_9_1" function="internal">
        <lane id=":3way_9_1_0" index="0" speed="13.89" length="14.40" shape="398.40,292.80 398.40,307.20"/>
    </edge>
    <edge id=":3way_9_2" function="internal">
        <lane id=":3way_9_2_0" index="0" speed="13.89" length="14.40" shape="401.60,307.20 401.60,292.80"/>
    </edge>
    <edge id=":3way_9_3" function="internal">
        <lane id=":3way_9_3_0" index="0" speed="8.00" length="4.07" shape="401.60,307.20 401.05,303.35 400.96,303.20"/>
    </edge>
    <edge id=":3way_9_6" function="internal">
        <lane id=":3way_9_6_0" index="0" speed="8.00" length="10.13" shape="400.96,303.20 399.40,300.60 396.65,298.95 392.80,298.40"/>
    </edge>
    <edge id=":3way_9_4" function="internal">
        <lane id=":3way_9_4_0" index="0" speed="6.51" length="9.03" shape="392.80,301.60 395.25,301.95 397.00,303.00 398.05,304.75 398.40,307.20"/>
    </edge>
    <edge id=":3way_9_5" function="internal">
        <lane id=":3way_9_5_0" index="0" speed="8.00" length="14.19" shape="392.80,301.60 396.65,301.05 399.40,299.40 401.05,296.65 401.60,292.80"/>
    </edge>
    <edge id=":4way_11_0" function="internal">
        <lane id=":4way_11_0_0" index="0" speed="6.51" length="9.03" shape="98.40,192.80 98.05,195.25 97.00,197.00 95.25,198.05 92.80,198.40"/>
    </edge>
    <edge id=":4way_11_1" function="internal">
        <lane id=":4way_11_1_0" index="0" speed="13.89" length="14.40" shape="98.40,192.80 98.40,207.20"/>
    </edge>
    <edge id=":4way_11_2" function="internal">
        <lane id=":4way_11_2_0" index="0" speed="8.00" length="4.07" shape="98.40,192.80 98.95,196.65 99.04,196.80"/>
    </edge>
    <edge id=":4way_11_12" function="internal">
        <lane id=":4way_11_12_0" index="0" speed="8.00" length="10.13" shape="99.04,196.80 100.60,199.40 103.35,201.05 107.20,201.60"/>
    </edge>
    <edge id=":4way_11_3" function="internal">
        <lane id=":4way_11_3_0" index="0" speed="6.51" length="9.03" shape="107.20,198.40 104.75,198.05 103.00,197.00 101.95,195.25 101.60,192.80"/>
    </edge>
    <edge id=":4way_11_4" function="internal">
        <lane id=":4way_11_4_0" index="0" speed="13.89" length="14.40" shape="107.20,198.40 92.80,198.40"/>
    </edge>
    <edge id=":4way_11_5" function="internal">
        <lane id=":4way_11_5_0" index="0" speed="8.00" length="4.07" shape="107.20,198.40 103.35,198.95 103.20,199.04"/>
    </edge>
    <edge id=":4way_11_13" function="internal">
        <lane id=":4way_11_13_0" index="0" speed="8.00" length="10.13" shape="103.20,199.04 100.60,200.60 98.95,203.35 98.40,207.20"/>
    </edge>
    <edge id=":4way_11_6" function="internal">
        <lane id=":4way_11_6_0" index="0" speed="6.51" length="9.03" shape="101.60,207.20 101.95,204.75 103.00,203.00 104.75,201.95 107.20,201.60"/>
    </edge>
    <edge id=":4way_11_7" function="internal">
        <lane id=":4way_11_7_0" index="0" speed="13.89" length="14.40" shape="101.60,207.20 101.60,192.80"/>
    </edge>
    <edge id=":4way_11_8" function="internal">
        <lane id=":4way_11_8_0" index="0" speed="8.00" length="4.07" shape="101.60,207.20 101.05,203.35 100.96,203.20"/>
    </edge>
    <edge id=":4way_11_14" function="internal">
        <lane id=":4way_11_14_0" index="0" speed="8.00" length="10.13" shape="100.96,203.20 99.40,200.60 96.65,198.95 92.80,198.40"/>
    </edge>
    <edge id=":4way_11_9" function="internal">
        <lane id=":4way_11_9_0" index="0" speed="6.51" length="9.03" shape="92.80,201.60 95.25,201.95 97.00,203.00 98.05,204.75 98.40,207.20"/>
    </edge>
    <edge id=":4way_11_10" function="internal">
        <lane id=":4way_11_10_0" index="0" speed="13.89" length="14.40" shape="92.80,201.60 107.20,201.60"/>
    </edge>
    <edge id=":4way_11_11" function="internal">
        <lane id=":4way_11_11_0" index="0" speed="8.00" length="4.07" shape="92.80,201.60 96.65,201.05 96.80,200.96"/>
    </edge>
    <edge id=":4way_11_15" function="internal">
        <lane id=":4way_11_15_0" index="0" speed="8.00" length="10.13" shape="96.80,200.96 99.40,199.40 101.05,196.65 101.60,192.80"/>
    </edge>
    <edge id=":4way_12_0" function="internal">
        <lane id=":4way_12_0_0" index="0" speed="6.51" length="9.03" shape="198.40,192.80 198.05,195.25 197.00,197.00 195.25,198.05 192.80,198.40"/>
    </edge>
    <edge id=":4way_12_1" function="internal">
        <lane id=":4way_12_1_0" index="0" speed="13.89" length="14.40" shape="198.40,192.80 198.40,207.20"/>
    </edge>
    <edge id=":4way_12_2" function="internal">
        <lane id=":4way_12_2_0" index="0" speed="8.00" length="4.07" shape="198.40,192.80 198.95,196.65 199.04,196.80"/>
    </edge>
    <edge id=":4way_12_12" function="internal">
        <lane id=":4way_12_12_0" index="0" speed="8.00" length="10.13" shape="199.04,196.80 200.60,199.40 203.35,201.05 207.20,201.60"/>
    </edge>
    <edge id=":4way_12_3" function="internal">
        <lane id=":4way_12_3_0" index="0" speed="6.51" length="9.03" shape="207.20,198.40 204.75,198.05 203.00,197.00 201.95,195.25 201.60,192.80"/>
    </edge>
    <edge id=":4way_12_4" function="internal">
        <lane id=":4way_12_4_0" index="0" speed="13.89" length="14.40" shape="207.20,198.40 192.80,198.40"/>
    </edge>
    <edge id=":4way_12_5" function="internal">
        <lane id=":4way_12_5_0" index="0" speed="8.00" length="4.07" shape="207.20,198.40 203.35,198.95 203.20,199.04"/>
    </edge>
    <edge id=":4way_12_13" function="internal">
        <lane id=":4way_12_13_0" index="0" speed="8.00" length="10.13" shape="203.20,199.04 200.60,200.60 198.95,203.35 198.40,207.20"/>
    </edge>
    <edge id=":4way_12_6" function="internal">
        <lane id=":4way_12_6_0" index="0" speed="6.51" length="9.03" shape="201.60,207.20 201.95,204.75 203.00,203.00 204.75,201.95 207.20,201.60"/>
    </edge>
    <edge id=":4way_12_7" function="internal">
        <lane id=":4way_12_7_0" index="0" speed="13.89" length="14.40" shape="201.60,207.20 201.60,192.80"/>
    </edge>
    <edge id=":4way_12_8" function="internal">
        <lane id=":4way_12_8_0" index="0" speed="8.00" length="4.07" shape="201.60,207.20 201.05,203.35 200.96,203.20"/>
    </edge>
    <edge id=":4way_12_14" function="internal">
        <lane id=":4way_12_14_0" index="0" speed="8.00" length="10.13" shape="200.96,203.20 199.40,200.60 196.65,198.95 192.80,198.40"/>
    </edge>
    <edge id=":4way_12_9" function="internal">
        <lane id=":4way_12_9_0" index="0" speed="6.51" length="9.03" shape="192.80,201.60 195.25,201.95 197.00,203.00 198.05,204.75 198.40,207.20"/>
    </edge>
    <edge id=":4way_12_10" function="internal">
        <lane id=":4way_12_10_0" index="0" speed="13.89" length="14.40" shape="192.80,201.60 207.20,201.60"/>
    </edge>
    <edge id=":4way_12_11" function="internal">
        <lane id=":4way_12_11_0" index="0" speed="8.00" length="4.07" shape="192.80,201.60 196.65,201.05 196.80,200.96"/>
    </edge>
    <edge id=":4way_12_15" function="internal">
        <lane id=":4way_12_15_0" index="0" speed="8.00" length="10.13" shape="196.80,200.96 199.40,199.40 201.05,196.65 201.60,192.80"/>
    </edge>
    <edge id=":4way_13_0" function="internal">
        <lane id=":4way_13_0_0" index="0" speed="6.51" length="9.03" shape="298.40,192.80 298.05,195.25 297.00,197.00 295.25,198.05 292.80,198.40"/>
    </edge>
    <edge id=":4way_13_1" function="internal">
        <lane id=":4way_13_1_0" index="0" speed="13.89" length="14.40" shape="298.40,192.80 298.40,207.20"/>
    </edge>
    <edge id=":4way_13_2" function="internal">
        <lane id=":4way_13_2_0" index="0" speed="8.00" length="4.07" shape="298.40,192.80 298.95,196.65 299.04,196.80"/>
    </edge>
    <edge id=":4way_13_12" function="internal">
        <lane id=":4way_13_12_0" index="0" speed="8.00" length="10.13" shape="299.04,196.80 300.60,199.40 303.35,201.05 307.20,201.60"/>
    </edge>
    <edge id=":4way_13_3" function="internal">
        <lane id=":4way_13_3_0" index="0" speed="6.51" length="9.03" shape="307.20,198.40 304.75,198.05 303.00,197.00 301.95,195.25 301.60,192.80"/>
    </edge>
    <edge id=":4way_13_4" function="internal">
        <lane id=":4way_13_4_0" index="0" speed="13.89" length="14.40" shape="307.20,198.40 292.80,198.40"/>
    </edge>
    <edge id=":4way_13_5" function="internal">
        <lane id=":4way_13_5_0" index="0" speed="8.00" length="4.07" shape="307.20,198.40 303.35,198.95 303.20,199.04"/>
    </edge>
    <edge id=":4way_13_13" function="internal">
        <lane id=":4way_13_13_0" index="0" speed="8.00" length="10.13" shape="303.20,199.04 300.60,200.60 298.95,203.35 298.40,207.20"/>
    </edge>
    <edge id=":4way_13_6" function="internal">
        <lane id=":4way_13_6_0" index="0" speed="6.51" length="9.03" shape="301.60,207.20 301.95,204.75 303.00,203.00 304.75,201.95 307.20,201.60"/>
    </edge>
    <edge id=":4way_13_7" function="internal">
        <lane id=":4way_13_7_0" index="0" speed="13.89" length="14.40" shape="301.60,207.20 301.60,192.80"/>
    </edge>
    <edge id=":4way_13_8" function="internal">
        <lane id=":4way_13_8_0" index="0" speed="8.00" length="4.07" shape="301.60,207.20 301.05,203.35 300.96,203.20"/>
    </edge>
    <edge id=":4way_13_14" function="internal">
        <lane id=":4way_13_14_0" index="0" speed="8.00" length="10.13" shape="300.96,203.20 299.40,200.60 296.65,198.95 292.80,198.40"/>
    </edge>
    <edge id=":4way_13_9" function="internal">
        <lane id=":4way_13_9_0" index="0" speed="6.51" length="9.03" shape="292.80,201.60 295.25,201.95 297.00,203.00 298.05,204.75 298.40,207.20"/>
    </edge>
    <edge id=":4way_13_10" function="internal">
        <lane id=":4way_13_10_0" index="0" speed="13.89" length="14.40" shape="292.80,201.60 307.20,201.60"/>
    </edge>
    <edge id=":4way_13_11" function="internal">
        <lane id=":4way_13_11_0" index="0" speed="8.00" length="4.07" shape="292.80,201.60 296.65,201.05 296.80,200.96"/>
    </edge>
    <edge id=":4way_13_15" function="internal">
        <lane id=":4way_13_15_0" index="0" speed="8.00" length="10.13" shape="296.80,200.96 299.40,199.40 301.05,196.65 301.60,192.80"/>
    </edge>
    <edge id=":4way_16_0" function="internal">
        <lane id=":4way_16_0_0" index="0" speed="6.51" length="9.03" shape="98.40,92.80 98.05,95.25 97.00,97.00 95.25,98.05 92.80,98.40"/>
    </edge>
    <edge id=":4way_16_1" function="internal">
        <lane id=":4way_16_1_0" index="0" speed="13.89" length="14.40" shape="98.40,92.80 98.40,107.20"/>
    </edge>
    <edge id=":4way_16_2" function="internal">
        <lane id=":4way_16_2_0" index="0" speed="8.00" length="4.07" shape="98.40,92.80 98.95,96.65 99.04,96.80"/>
    </edge>
    <edge id=":4way_16_12" function="internal">
        <lane id=":4way_16_12_0" index="0" speed="8.00" length="10.13" shape="99.04,96.80 100.60,99.40 103.35,101.05 107.20,101.60"/>
    </edge>
    <edge id=":4way_16_3" function="internal">
        <lane id=":4way_16_3_0" index="0" speed="6.51" length="9.03" shape="107.20,98.40 104.75,98.05 103.00,97.00 101.95,95.25 101.60,92.80"/>
    </edge>
    <edge id=":4way_16_4" function="internal">
        <lane id=":4way_16_4_0" index="0" speed="13.89" length="14.40" shape="107.20,98.40 92.80,98.40"/>
    </edge>
    <edge id=":4way_16_5" function="internal">
        <lane id=":4way_16_5_0" index="0" speed="8.00" length="4.07" shape="107.20,98.40 103.35,98.95 103.20,99.04"/>
    </edge>
    <edge id=":4way_16_13" function="internal">
        <lane id=":4way_16_13_0" index="0" speed="8.00" length="10.13" shape="103.20,99.04 100.60,100.60 98.95,103.35 98.40,107.20"/>
    </edge>
    <edge id=":4way_16_6" function="internal">
        <lane id=":4way_16_6_0" index="0" speed="6.51" length="9.03" shape="101.60,107.20 101.95,104.75 103.00,103.00 104.75,101.95 107.20,101.60"/>
    </edge>
    <edge id=":4way_16_7" function="internal">
        <lane id=":4way_16_7_0" index="0" speed="13.89" length="14.40" shape="101.60,107.20 101.60,92.80"/>
    </edge>
    <edge id=":4way_16_8" function="internal">
        <lane id=":4way_16_8_0" index="0" speed="8.00" length="4.07" shape="101.60,107.20 101.05,103.35 100.96,103.20"/>
    </edge>
    <edge id=":4way_16_14" function="internal">
        <lane id=":4way_16_14_0" index="0" speed="8.00" length="10.13" shape="100.96,103.20 99.40,100.60 96.65,98.95 92.80,98.40"/>
    </edge>
    <edge id=":4way_16_9" function="internal">
        <lane id=":4way_16_9_0" index="0" speed="6.51" length="9.03" shape="92.80,101.60 95.25,101.95 97.00,103.00 98.05,104.75 98.40,107.20"/>
    </edge>
    <edge id=":4way_16_10" function="internal">
        <lane id=":4way_16_10_0" index="0" speed="13.89" length="14.40" shape="92.80,101.60 107.20,101.60"/>
    </edge>
    <edge id=":4way_16_11" function="internal">
        <lane id=":4way_16_11_0" index="0" speed="8.00" length="4.07" shape="92.80,101.60 96.65,101.05 96.80,100.96"/>
    </edge>
    <edge id=":4way_16_15" function="internal">
        <lane id=":4way_16_15_0" index="0" speed="8.00" length="10.13" shape="96.80,100.96 99.40,99.40 101.05,96.65 101.60,92.80"/>
    </edge>
    <edge id=":4way_17_0" function="internal">
        <lane id=":4way_17_0_0" index="0" speed="6.51" length="9.03" shape="198.40,92.80 198.05,95.25 197.00,97.00 195.25,98.05 192.80,98.40"/>
    </edge>
    <edge id=":4way_17_1" function="internal">
        <lane id=":4way_17_1_0" index="0" speed="13.89" length="14.40" shape="198.40,92.80 198.40,107.20"/>
    </edge>
    <edge id=":4way_17_2" function="internal">
        <lane id=":4way_17_2_0" index="0" speed="8.00" length="4.07" shape="198.40,92.80 198.95,96.65 199.04,96.80"/>
    </edge>
    <edge id=":4way_17_12" function="internal">
        <lane id=":4way_17_12_0" index="0" speed="8.00" length="10.13" shape="199.04,96.80 200.60,99.40 203.35,101.05 207.20,101.60"/>
    </edge>
    <edge id=":4way_17_3" function="internal">
        <lane id=":4way_17_3_0" index="0" speed="6.51" length="9.03" shape="207.20,98.40 204.75,98.05 203.00,97.00 201.95,95.25 201.60,92.80"/>
    </edge>
    <edge id=":4way_17_4" function="internal">
        <lane id=":4way_17_4_0" index="0" speed="13.89" length="14.40" shape="207.20,98.40 192.80,98.40"/>
    </edge>