<routes xmlns:xsi="http://www.w3.org/2001/XMLSchema-instance" xsi:noNamespaceSchemaLocation="http://sumo.dlr.de/xsd/routes_file.xsd">
<trip id="0" depart="0.0" fromJunction="4way_12" toJunction="4way_26"/>
<trip id="1" depart="1.25" fromJunction="4way_26" toJunction="4way_11"/>
<trip id="2" depart="2.5" fromJunction="4way_27" toJunction="4way_17"/>
<trip id="3" depart="3.75" fromJunction="4way_53" toJunction="4way_25"/>
<trip id="4" depart="5.0" fromJunction="3way_8" toJunction="4way_38"/>
<trip id="5" depart="6.25" fromJunction="4way_18" toJunction="4way_52"/>
<trip id="6" depart="7.5" fromJunction="4way_22" toJunction="4way_42"/>
<trip id="7" depart="8.75" fromJunction="3way_6" toJunction="3way_5"/>
<trip id="8" depart="10.0" fromJunction="4way_21" toJunction="3way_2"/>
<trip id="9" depart="11.25" fromJunction="4way_45" toJunction="4way_44"/>
<trip id="10" depart="12.5" fromJunction="4way_52" toJunction="4way_46"/>
<trip id="11" depart="13.75" fromJunction="4way_44" toJunction="4way_33"/>
<trip id="12" depart="15.0" fromJunction="4way_27" toJunction="3way_23"/>
<trip id="13" depart="16.25" fromJunction="4way_30" toJunction="3way_31"/>
<trip id="14" depart="17.5" fromJunction="4way_9" toJunction="4way_18"/>
<trip id="15" depart="18.75" fromJunction="4way_44" toJunction="3way_59"/>
<trip id="16" depart="20.0" fromJunction="4way_42" toJunction="4way_33"/>
<trip id="17" depart="21.25" fromJunction="4way_19" toJunction="3way_2"/>
<trip id="18" depart="22.5" fromJunction="4way_19" toJunction="4way_11"/>
<trip id="19" depart="23.75" fromJunction="4way_43" toJunction="4way_30"/>
<trip id="20" depart="25.0" fromJunction="4way_25" toJunction="3way_24"/>
<trip id="21" depart="26.25" fromJunction="3way_4" toJunction="4way_51"/>
<trip id="22" depart="27.5" fromJunction="3way_23" toJunction="3way_62"/>
<trip id="23" depart="28.75" fromJunction="3way_24" toJunction="3way_48"/>
<trip id="24" depart="30.0" fromJunction="4way_25" toJunction="4way_42"/>
<trip id="25" depart="31.25" fromJunction="3way_15" toJunction="4way_54"/>
<trip id="26" depart="32.5" fromJunction="3way_39" toJunction="3way_62"/>
<trip id="27" depart="33.75" fromJunction="3way_59" toJunction="4way_35"/>
<trip id="28" depart="35.0" fromJunction="3way_60" toJunction="4way_33"/>
<trip id="29" depart="36.25" fromJunction="3way_15" toJunction="3way_39"/>
<trip id="30" depart="37.5" fromJunction="3way_31" toJunction="4way_35"/>
<trip id="31" depart="38.75" fromJunction="3way_16" toJunction="3way_55"/>
<trip id="32" depart="40.0" fromJunction="3way_6" toJunction="4way_21"/>
<trip id="33" depart="41.25" fromJunction="3way_6" toJunction="4way_29"/>
<trip id="34" depart="42.5" fromJunction="4way_41" toJunction="4way_46"/>
<trip id="35" depart="43.75" fromJunction="4way_11" toJunction="4way_46"/>
<trip id="36" depart="45.0" fromJunction="3way_3" toJunction="4way_28"/>
<trip id="37" depart="46.25" fromJunction="3way_23" toJunction="3way_58"/>
<trip id="38" depart="47.5" fromJunction="3way_23" toJunction="3way_57"/>
<trip id="39" depart="48.75" fromJunction="4way_9" toJunction="3way_40"/>
<trip id="40" depart="50.0" fromJunction="4way_51" toJunction="3way_4"/>
<trip id="41" depart="51.25" fromJunction="3way_59" toJunction="4way_34"/>
<trip id="42" depart="52.5" fromJunction="3way_6" toJunction="4way_18"/>
<trip id="43" depart="53.75" fromJunction="4way_22" toJunction="4way_42"/>
<trip id="44" depart="55.0" fromJunction="4way_43" toJunction="3way_40"/>
<trip id="45" depart="56.25" fromJunction="4way_12" toJunction="3way_23"/>
<trip id="46" depart="57.5" fromJunction="3way_47" toJunction="3way_57"/>
<trip id="47" depart="58.75" fromJunction="3way_2" toJunction="4way_50"/>
<trip id="48" depart="60.0" fromJunction="3way_1" toJunction="4way_21"/>
<trip id="49" depart="61.25" fromJunction="3way_58" toJunction="4way_43"/>
<trip id="50" depart="62.5" fromJunction="4way_38" toJunction="4way_28"/>
<trip id="51" depart="63.75" fromJunction="4way_42" toJunction="3way_60"/>
<trip id="52" depart="65.0" fromJunction="4way_42" toJunction="4way_50"/>
<trip id="53" depart="66.25" fromJunction="4way_38" toJunction="3way_61"/>
<trip id="54" depart="67.5" fromJunction="4way_29" toJunction="4way_25"/>
<trip id="55" depart="68.75" fromJunction="3way_57" toJunction="4way_51"/>
<trip id="56" depart="70.0" fromJunction="3way_8" toJunction="4way_13"/>
<trip id="57" depart="71.25" fromJunction="4way_42" toJunction="4way_45"/>
<trip id="58" depart="72.5" fromJunction="4way_51" toJunction="4way_45"/>
<trip id="59" depart="73.75" fromJunction="4way_10" toJunction="4way_20"/>
<trip id="60" depart="75.0" fromJunction="4way_27" toJunction="4way_38"/>
<trip id="61" depart="76.25" fromJunction="4way_11" toJunction="4way_17"/>
<trip id="62" depart="77.5" fromJunction="3way_48" toJunction="3way_2"/>
<trip id="63" depart="78.75" fromJunction="3way_57" toJunction="4way_35"/>
<trip id="64" depart="80.0" fromJunction="4way_17" toJunction="4way_19"/>
<trip id="65" depart="81.25" fromJunction="3way_57" toJunction="3way_31"/>
<trip id="66" depart="82.5" fromJunction="4way_50" toJunction="4way_42"/>
<trip id="67" depart="83.75" fromJunction="4way_35" toJunction="4way_42"/>
<trip id="68" depart="85.0" fromJunction="4way_17" toJunction="4way_35"/>
<trip id="69" depart="86.25" fromJunction="3way_16" toJunction="4way_53"/>
<trip id="70" depart="87.5" fromJunction="4way_53" toJunction="4way_25"/>
<trip id="71" depart="88.75" fromJunction="4way_12" toJunction="4way_13"/>
<trip id="72" depart="90.0" fromJunction="4way_22" toJunction="3way_15"/>
<trip id="73" depart="91.25" fromJunction="4way_54" toJunction="4way_12"/>
<trip id="74" depart="92.5" fromJunction="4way_45" toJunction="3way_31"/>
<trip id="75" depart="93.75" fromJunction="4way_11" toJunction="3way_39"/>
<trip id="76" depart="95.0" fromJunction="4way_29" toJunction="3way_23"/>
<trip id="77" depart="96.25" fromJunction="4way_42" toJunction="4way_13"/>
<trip id="78" depart="97.5" fromJunction="3way_5" toJunction="4way_9"/>
<trip id="79" depart="98.75" fromJunction="4way_33" toJunction="4way_51"/>
<trip id="80" depart="100.0" fromJunction="4way_37" toJunction="4way_20"/>
<trip id="81" depart="101.25" fromJunction="4way_37" toJunction="4way_46"/>
<trip id="82" depart="102.5" fromJunction="3way_24" toJunction="3way_1"/>
<trip id="83" depart="103.75" fromJunction="3way_47" toJunction="4way_20"/>
<trip id="84" depart="105.0" fromJunction="3way_4" toJunction="4way_18"/>
<trip id="85" depart="106.25" fromJunction="3way_2" toJunction="3way_55"/>
<trip id="86" depart="107.5" fromJunction="3way_61" toJunction="4way_52"/>
<trip id="87" depart="108.75" fromJunction="4way_22" toJunction="3way_32"/>
<trip id="88" depart="110.0" fromJunction="3way_2" toJunction="4way_12"/>
<trip id="89" depart="111.25" fromJunction="4way_19" toJunction="3way_39"/>
<trip id="90" depart="112.5" fromJunction="3way_60" toJunction="4way_42"/>
<trip id="91" depart="113.75" fromJunction="4way_11" toJunction="4way_30"/>
<trip id="92" depart="115.0" fromJunction="4way_50" toJunction="4way_26"/>
<trip id="93" depart="116.25" fromJunction="3way_48" toJunction="4way_20"/>
<trip id="94" depart="117.5" fromJunction="3way_62" toJunction="3way_8"/>
<trip id="95" depart="118.75" fromJunction="4way_30" toJunction="3way_55"/>
<trip id="96" depart="120.0" fromJunction="4way_49" toJunction="4way_28"/>
<trip id="97" depart="121.25" fromJunction="3way_59" toJunction="3way_61"/>
<trip id="98" depart="122.5" fromJunction="4way_25" toJunction="3way_4"/>
<trip id="99" depart="123.75" fromJunction="4way_51" toJunction="3way_48"/>
<trip id="100" depart="125.0" fromJunction="3way_47" toJunction="3way_16"/>
<trip id="101" depart="126.25" fromJunction="3way_5" toJunction="3way_2"/>
<trip id="102" depart="127.5" fromJunction="4way_33" toJunction="4way_43"/>
<trip id="103" depart="128.75" fromJunction="4way_53" toJunction="4way_26"/>
<trip id="104" depart="130.0" fromJunction="3way_61" toJunction="4way_54"/>
<trip id="105" depart="131.25" fromJunction="3way_59" toJunction="4way_35"/>
<trip id="106" depart="132.5" fromJunction="4way_36" toJunction="3way_2"/>
<trip id="107" depart="133.75" fromJunction="3way_8" toJunction="3way_40"/>
<trip id="108" depart="135.0" fromJunction="4way_21" toJunction="4way_50"/>
<trip id="109" depart="136.25" fromJunction="4way_45" toJunction="4way_19"/>
<trip id="110" depart="137.5" fromJunction="4way_52" toJunction="3way_58"/>
<trip id="111" depart="138.75" fromJunction="4way_38" toJunction="3way_55"/>
<trip id="112" depart="140.0" fromJunction="3way_62" toJunction="4way_51"/>
<trip id="113" depart="141.25" fromJunction="4way_20" toJunction="4way_30"/>
<trip id="114" depart="142.5" fromJunction="3way_62" toJunction="3way_59"/>
<trip id="115" depart="143.75" fromJunction="3way_2" toJunction="4way_18"/>
<trip id="116" depart="145.0" fromJunction="4way_17" toJunction="3way_62"/>
<trip id="117" depart="146.25" fromJunction="4way_33" toJunction="3way_16"/>
<trip id="118" depart="147.5" fromJunction="4way_50" toJunction="3way_58"/>
<trip id="119" depart="148.75" fromJunction="3way_23" toJunction="4way_37"/>
<trip id="120" depart="150.0" fromJunction="3way_23" toJunction="4way_18"/>
<trip id="121" depart="151.25" fromJunction="3way_8" toJunction="4way_20"/>
<trip id="122" depart="152.5" fromJunction="3way_47" toJunction="4way_34"/>
<trip id="123" depart="153.75" fromJunction="4way_49" toJunction="3way_31"/>
<trip id="124" depart="155.0" fromJunction="4way_30" toJunction="3way_24"/>
<trip id="125" depart="156.25" fromJunction="4way_28" toJunction="4way_36"/>
<trip id="126" depart="157.5" fromJunction="3way_6" toJunction="4way_14"/>
<trip id="127" depart="158.75" fromJunction="4way_50" toJunction="4way_34"/>
<trip id="128" depart="160.0" fromJunction="3way_57" toJunction="4way_38"/>
<trip id="129" depart="161.25" fromJunction="3way_15" toJunction="3way_60"/>
<trip id="130" depart="162.5" fromJunction="4way_22" toJunction="3way_1"/>
<trip id="131" depart="163.75" fromJunction="4way_52" toJunction="4way_43"/>
<trip id="132" depart="165.0" fromJunction="4way_50" toJunction="3way_58"/>
<trip id="133" depart="166.25" fromJunction="4way_49" toJunction="3way_4"/>
<trip id="134" depart="167.5" fromJunction="4way_45" toJunction="4way_46"/>
<trip id="135" depart="168.75" fromJunction="4way_38" toJunction="3way_32"/>
<trip id="136" depart="170.0" fromJunction="4way_30" toJunction="3way_61"/>
<trip id="137" depart="171.25" fromJunction="4way_52" toJunction="4way_30"/>
<trip id="138" depart="172.5" fromJunction="4way_45" toJunction="4way_19"/>
<trip id="139" depart="173.75" fromJunction="4way_29" toJunction="3way_57"/>
<trip id="140" depart="175.0" fromJunction="3way_1" toJunction="4way_19"/>
<trip id="141" depart="176.25" fromJunction="3way_31" toJunction="3way_32"/>
<trip id="142" depart="177.5" fromJunction="4way_41" toJunction="4way_46"/>
<trip id="143" depart="178.75" fromJunction="4way_27" toJunction="4way_49"/>
<trip id="144" depart="180.0" fromJunction="3way_31" toJunction="3way_16"/>
<trip id="145" depart="181.25" fromJunction="3way_55" toJunction="4way_21"/>
<trip id="146" depart="182.5" fromJunction="3way_61" toJunction="4way_10"/>
<trip id="147" depart="183.75" fromJunction="4way_37" toJunction="3way_6"/>
<trip id="148" depart="185.0" fromJunction="4way_38" toJunction="4way_46"/>
<trip id="149" depart="186.25" fromJunction="4way_44" toJunction="4way_14"/>
<trip id="150" depart="187.5" fromJunction="3way_5" toJunction="3way_40"/>
<trip id="151" depart="188.75" fromJunction="3way_61" toJunction="4way_9"/>
<trip id="152" depart="190.0" fromJunction="3way_4" toJunction="3way_23"/>
<trip id="153" depart="191.25" fromJunction="3way_1" toJunction="4way_20"/>
<trip id="154" depart="192.5" fromJunction="3way_31" toJunction="4way_44"/>
<trip id="155" depart="193.75" fromJunction="3way_6" toJunction="3way_5"/>
<trip id="156" depart="195.0" fromJunction="3way_60" toJunction="4way_43"/>
<trip id="157" depart="196.25" fromJunction="4way_34" toJunction="4way_17"/>
<trip id="158" depart="197.5" fromJunction="4way_20" toJunction="4way_37"/>
<trip id="159" depart="198.75" fromJunction="3way_23" toJunction="3way_58"/>
<trip id="160" depart="200.0" fromJunction="3way_48" toJunction="3way_4"/>
<trip id="161" depart="201.25" fromJunction="4way_33" toJunction="3way_59"/>
<trip id="162" depart="202.5" fromJunction="4way_51" toJunction="4way_43"/>
<trip id="163" depart="203.75" fromJunction="3way_16" toJunction="3way_57"/>
<trip id="164" depart="205.0" fromJunction="4way_52" toJunction="3way_47"/>
<trip id="165" depart="206.25" fromJunction="4way_51" toJunction="3way_4"/>
<trip id="166" depart="207.5" fromJunction="3way_16" toJunction="3way_59"/>
<trip id="167" depart="208.75" fromJunction="3way_58" toJunction="4way_50"/>
<trip id="168" depart="210.0" fromJunction="3way_55" toJunction="3way_16"/>
<trip id="169" depart="211.25" fromJunction="3way_3" toJunction="4way_33"/>
<trip id="170" depart="212.5" fromJunction="3way_5" toJunction="4way_52"/>
<trip id="171" depart="213.75" fromJunction="3way_48" toJunction="4way_18"/>
<trip id="172" depart="215.0" fromJunction="4way_38" toJunction="4way_42"/>
<trip id="173" depart="216.25" fromJunction="3way_3" toJunction="4way_27"/>
<trip id="174" depart="217.5" fromJunction="4way_10" toJunction="4way_17"/>
<trip id="175" depart="218.75" fromJunction="4way_43" toJunction="4way_26"/>
<trip id="176" depart="220.0" fromJunction="3way_23" toJunction="3way_58"/>
<trip id="177" depart="221.25" fromJunction="4way_38" toJunction="3way_8"/>
<trip id="178" depart="222.5" fromJunction="4way_14" toJunction="3way_55"/>
<trip id="179" depart="223.75" fromJunction="4way_33" toJunction="4way_26"/>
<trip id="180" depart="225.0" fromJunction="4way_33" toJunction="4way_45"/>
<trip id="181" depart="226.25" fromJunction="3way_8" toJunction="4way_20"/>
<trip id="182" depart="227.5" fromJunction="4way_51" toJunction="4way_14"/>
<trip id="183" depart="228.75" fromJunction="3way_40" toJunction="4way_51"/>
<trip id="184" depart="230.0" fromJunction="4way_27" toJunction="4way_36"/>
<trip id="185" depart="231.25" fromJunction="3way_39" toJunction="3way_60"/>
<trip id="186" depart="232.5" fromJunction="4way_38" toJunction="4way_52"/>
<trip id="187" depart="233.75" fromJunction="4way_50" toJunction="4way_33"/>
<trip id="188" depart="235.0" fromJunction="4way_33" toJunction="4way_37"/>
<trip id="189" depart="236.25" fromJunction="4way_42" toJunction="4way_38"/>
<trip id="190" depart="237.5" fromJunction="4way_14" toJunction="4way_21"/>
<trip id="191" depart="238.75" fromJunction="3way_39" toJunction="4way_13"/>
<trip id="192" depart="240.0" fromJunction="3way_8" toJunction="4way_19"/>
<trip id="193" depart="241.25" fromJunction="4way_17" toJunction="3way_4"/>
<trip id="194" depart="242.5" fromJunction="4way_29" toJunction="3way_59"/>
<trip id="195" depart="243.75" fromJunction="4way_38" toJunction="3way_2"/>
<trip id="196" depart="245.0" fromJunction="3way_55" toJunction="3way_1"/>
<trip id="197" depart="246.25" fromJunction="4way_22" toJunction="4way_9"/>
<trip id="198" depart="247.5" fromJunction="4way_30" toJunction="3way_6"/>
<trip id="199" depart="248.75" fromJunction="4way_33" toJunction="4way_45"/>
<trip id="200" depart="250.0" fromJunction="3way_61" toJunction="3way_40"/>
<trip id="201" depart="251.25" fromJunction="3way_2" toJunction="4way_11"/>
<trip id="202" depart="252.5" fromJunction="4way_17" toJunction="3way_1"/>
<trip id="203" depart="253.75" fromJunction="3way_59" toJunction="3way_5"/>
<trip id="204" depart="255.0" fromJunction="3way_59" toJunction="3way_61"/>
<trip id="205" depart="256.25" fromJunction="3way_1" toJunction="3way_23"/>
<trip id="206" depart="257.5" fromJunction="4way_19" toJunction="3way_15"/>
<trip id="207" depart="258.75" fromJunction="4way_54" toJunction="4way_46"/>
<trip id="208" depart="260.0" fromJunction="3way_39" toJunction="4way_9"/>
<trip id="209" depart="261.25" fromJunction="4way_49" toJunction="4way_27"/>
<trip id="210" depart="262.5" fromJunction="3way_4" toJunction="4way_54"/>
<trip id="211" depart="263.75" fromJunction="3way_57" toJunction="4way_44"/>
<trip id="212" depart="265.0" fromJunction="4way_35" toJunction="3way_60"/>
<trip id="213" depart="266.25" fromJunction="4way_35" toJunction="3way_60"/>
<trip id="214" depart="267.5" fromJunction="4way_17" toJunction="4way_18"/>
<trip id="215" depart="268.75" fromJunction="3way_57" toJunction="4way_34"/>
<trip id="216" depart="270.0" fromJunction="4way_9" toJunction="4way_12"/>
<trip id="217" depart="271.25" fromJunction="4way_21" toJunction="3way_24"/>
<trip id="218" depart="272.5" fromJunction="3way_3" toJunction="4way_22"/>
<trip id="219" depart="273.75" fromJunction="3way_32" toJunction="3way_61"/>
<trip id="220" depart="275.0" fromJunction="4way_54" toJunction="4way_13"/>
<trip id="221" depart="276.25" fromJunction="4way_14" toJunction="4way_46"/>
<trip id="222" depart="277.5" fromJunction="4way_54" toJunction="3way_57"/>
<trip id="223" depart="278.75" fromJunction="3way_15" toJunction="3way_60"/>
<trip id="224" depart="280.0" fromJunction="3way_60" toJunction="4way_38"/>
<trip id="225" depart="281.25" fromJunction="3way_4" toJunction="4way_51"/>
<trip id="226" depart="282.5" fromJunction="4way_45" toJunction="4way_20"/>
<trip id="227" depart="283.75" fromJunction="3way_16" toJunction="3way_58"/>
<trip id="228" depart="285.0" fromJunction="4way_28" toJunction="3way_16"/>
<trip id="229" depart="286.25" fromJunction="3way_47" toJunction="3way_60"/>
<trip id="230" depart="287.5" fromJunction="3way_48" toJunction="4way_25"/>
<trip id="231" depart="288.75" fromJunction="3way_60" toJunction="4way_29"/>
<trip id="232" depart="290.0" fromJunction="4way_30" toJunction="4way_10"/>
<trip id="233" depart="291.25" fromJunction="4way_45" toJunction="4way_27"/>
<trip id="234" depart="292.5" fromJunction="4way_36" toJunction="4way_30"/>
<trip id="235" depart="293.75" fromJunction="4way_46" toJunction="4way_51"/>
<trip id="236" depart="295.0" fromJunction="4way_33" toJunction="4way_54"/>
<trip id="237" depart="296.25" fromJunction="3way_57" toJunction="3way_5"/>
<trip id="238" depart="297.5" fromJunction="4way_17" toJunction="3way_39"/>
<trip id="239" depart="298.75" fromJunction="4way_11" toJunction="3way_23"/>
<trip id="240" depart="300.0" fromJunction="4way_53" toJunction="3way_16"/>
<trip id="241" depart="301.25" fromJunction="4way_26" toJunction="4way_46"/>
<trip id="242" depart="302.5" fromJunction="4way_50" toJunction="3way_58"/>
<trip id="243" depart="303.75" fromJunction="4way_9" toJunction="4way_53"/>
<trip id="244" depart="305.0" fromJunction="3way_58" toJunction="4way_34"/>
<trip id="245" depart="306.25" fromJunction="4way_9" toJunction="4way_33"/>
<trip id="246" depart="307.5" fromJunction="4way_10" toJunction="3way_60"/>
<trip id="247" depart="308.75" fromJunction="3way_16" toJunction="3way_48"/>
<trip id="248" depart="310.0" fromJunction="4way_36" toJunction="4way_18"/>
<trip id="249" depart="311.25" fromJunction="4way_22" toJunction="3way_32"/>
<trip id="250" depart="312.5" fromJunction="3way_3" toJunction="4way_37"/>
<trip id="251" depart="313.75" fromJunction="4way_25" toJunction="3way_59"/>
<trip id="252" depart="315.0" fromJunction="3way_32" toJunction="3way_15"/>
<trip id="253" depart="316.25" fromJunction="4way_43" toJunction="4way_28"/>
<trip id="254" depart="317.5" fromJunction="4way_12" toJunction="4way_19"/>
<trip id="255" depart="318.75" fromJunction="3way_32" toJunction="3way_62"/>
<trip id="256" depart="320.0" fromJunction="4way_45" toJunction="4way_43"/>
<trip id="257" depart="321.25" fromJunction="3way_58" toJunction="4way_26"/>
<trip id="258" depart="322.5" fromJunction="4way_12" toJunction="3way_2"/>
<trip id="259" depart="323.75" fromJunction="3way_16" toJunction="3way_1"/>
<trip id="260" depart="325.0" fromJunction="4way_22" toJunction="4way_18"/>
<trip id="261" depart="326.25" fromJunction="4way_9" toJunction="3way_6"/>
<trip id="262" depart="327.5" fromJunction="3way_32" toJunction="3way_2"/>
<trip id="263" depart="328.75" fromJunction="3way_58" toJunction="4way_19"/>
<trip id="264" depart="330.0" fromJunction="3way_15" toJunction="3way_62"/>
<trip id="265" depart="331.25" fromJunction="4way_51" toJunction="4way_42"/>
<trip id="266" depart="332.5" fromJunction="4way_30" toJunction="4way_43"/>
<trip id="267" depart="333.75" fromJunction="4way_27" toJunction="3way_1"/>
<trip id="268" depart="335.0" fromJunction="4way_50" toJunction="4way_11"/>
<trip id="269" depart="336.25" fromJunction="3way_2" toJunction="4way_38"/>
<trip id="270" depart="337.5" fromJunction="4way_13" toJunction="4way_51"/>
<trip id="271" depart="338.75" fromJunction="3way_32" toJunction="4way_10"/>
<trip id="272" depart="340.0" fromJunction="3way_6" toJunction="4way_52"/>
<trip id="273" depart="341.25" fromJunction="4way_18" toJunction="4way_25"/>
<trip id="274" depart="342.5" fromJunction="3way_6" toJunction="4way_51"/>
<trip id="275" depart="343.75" fromJunction="4way_9" toJunction="3way_61"/>
<trip id="276" depart="345.0" fromJunction="4way_53" toJunction="4way_19"/>
<trip id="277" depart="346.25" fromJunction="3way_31" toJunction="4way_19"/>
<trip id="278" depart="347.5" fromJunction="4way_45" toJunction="4way_46"/>
<trip id="279" depart="348.75" fromJunction="4way_22" toJunction="4way_10"/>
<trip id="280" depart="350.0" fromJunction="4way_22" toJunction="4way_26"/>
<trip id="281" depart="351.25" fromJunction="4way_46" toJunction="4way_21"/>
<trip id="282" depart="352.5" fromJunction="3way_3" toJunction="4way_22"/>
<trip id="283" depart="353.75" fromJunction="3way_8" toJunction="3way_47"/>
<trip id="284" depart="355.0" fromJunction="3way_48" toJunction="4way_38"/>
<trip id="285" depart="356.25" fromJunction="4way_53" toJunction="3way_39"/>
<trip id="286" depart="357.5" fromJunction="4way_14" toJunction="4way_25"/>
<trip id="287" depart="358.75" fromJunction="4way_35" toJunction="3way_39"/>
<trip id="288" depart="360.0" fromJunction="3way_5" toJunction="4way_25"/>
<trip id="289" depart="361.25" fromJunction="3way_60" toJunction="4way_51"/>
<trip id="290" depart="362.5" fromJunction="3way_4" toJunction="3way_3"/>
<trip id="291" depart="363.75" fromJunction="4way_14" toJunction="3way_4"/>
<trip id="292" depart="365.0" fromJunction="4way_53" toJunction="4way_28"/>
<trip id="293" depart="366.25" fromJunction="4way_18" toJunction="4way_43"/>
<trip id="294" depart="367.5" fromJunction="4way_54" toJunction="3way_48"/>
<trip id="295" depart="368.75" fromJunction="4way_41" toJunction="3way_24"/>
<trip id="296" depart="370.0" fromJunction="4way_46" toJunction="3way_16"/>
<trip id="297" depart="371.25" fromJunction="3way_40" toJunction="3way_47"/>
<trip id="298" depart="372.5" fromJunction="3way_4" toJunction="4way_43"/>
<trip id="299" depart="373.75" fromJunction="4way_41" toJunction="4way_11"/>
<trip id="300" depart="375.0" fromJunction="3way_60" toJunction="3way_57"/>
<trip id="301" depart="376.25" fromJunction="3way_16" toJunction="4way_10"/>
<trip id="302" depart="377.5" fromJunction="3way_32" toJunction="4way_33"/>
<trip id="303" depart="378.75" fromJunction="3way_31" toJunction="4way_46"/>
<trip id="304" depart="380.0" fromJunction="3way_32" toJunction="3way_6"/>
<trip id="305" depart="381.25" fromJunction="4way_35" toJunction="4way_50"/>
<trip id="306" depart="382.5" fromJunction="4way_54" toJunction="3way_8"/>
<trip id="307" depart="383.75" fromJunction="4way_20" toJunction="3way_24"/>
<trip id="308" depart="385.0" fromJunction="4way_13" toJunction="4way_27"/>
<trip id="309" depart="386.25" fromJunction="4way_53" toJunction="4way_46"/>
<trip id="310" depart="387.5" fromJunction="4way_51" toJunction="4way_36"/>
<trip id="311" depart="388.75" fromJunction="3way_31" toJunction="3way_32"/>
<trip id="312" depart="390.0" fromJunction="3way_60" toJunction="3way_4"/>
<trip id="313" depart="391.25" fromJunction="4way_18" toJunction="4way_17"/>
<trip id="314" depart="392.5" fromJunction="4way_38" toJunction="4way_44"/>
<trip id="315" depart="393.75" fromJunction="3way_15" toJunction="3way_23"/>
<trip id="316" depart="395.0" fromJunction="4way_28" toJunction="4way_50"/>
<trip id="317" depart="396.25" fromJunction="4way_30" toJunction="4way_29"/>
<trip id="318" depart="397.5" fromJunction="3way_8" toJunction="4way_54"/>
<trip id="319" depart="398.75" fromJunction="3way_31" toJunction="3way_16"/>
<trip id="320" depart="400.0" fromJunction="4way_35" toJunction="4way_51"/>
<trip id="321" depart="401.25" fromJunction="3way_6" toJunction="4way_37"/>
<trip id="322" depart="402.5" fromJunction="4way_42" toJunction="4way_49"/>
<trip id="323" depart="403.75" fromJunction="3way_47" toJunction="3way_60"/>
<trip id="324" depart="405.0" fromJunction="3way_4" toJunction="4way_37"/>
<trip id="325" depart="406.25" fromJunction="3way_15" toJunction="4way_41"/>
<trip id="326" depart="407.5" fromJunction="4way_46" toJunction="4way_33"/>
<trip id="327" depart="408.75" fromJunction="4way_37" toJunction="4way_17"/>
<trip id="328" depart="410.0" fromJunction="3way_58" toJunction="3way_23"/>
<trip id="329" depart="411.25" fromJunction="3way_8" toJunction="4way_9"/>
<trip id="330" depart="412.5" fromJunction="3way_32" toJunction="4way_43"/>
<trip id="331" depart="413.75" fromJunction="4way_27" toJunction="4way_12"/>
<trip id="332" depart="415.0" fromJunction="4way_17" toJunction="3way_8"/>
<trip id="333" depart="416.25" fromJunction="3way_5" toJunction="4way_11"/>
<trip id="334" depart="417.5" fromJunction="4way_35" toJunction="4way_21"/>
<trip id="335" depart="418.75" fromJunction="4way_26" toJunction="4way_20"/>
<trip id="336" depart="420.0" fromJunction="4way_9" toJunction="3way_15"/>
<trip id="337" depart="421.25" fromJunction="3way_40" toJunction="4way_9"/>
<trip id="338" depart="422.5" fromJunction="4way_28" toJunction="3way_2"/>
<trip id="339" depart="423.75" fromJunction="4way_11" toJunction="3way_15"/>
<trip id="340" depart="425.0" fromJunction="4way_27" toJunction="4way_12"/>
<trip id="341" depart="426.25" fromJunction="3way_15" toJunction="4way_38"/>
<trip id="342" depart="427.5" fromJunction="3way_2" toJunction="4way_45"/>
<trip id="343" depart="428.75" fromJunction="4way_9" toJunction="4way_26"/>
<trip id="344" depart="430.0" fromJunction="3way_24" toJunction="4way_18"/>
<trip id="345" depart="431.25" fromJunction="3way_2" toJunction="3way_55"/>
<trip id="346" depart="432.5" fromJunction="4way_29" toJunction="4way_18"/>
<trip id="347" depart="433.75" fromJunction="3way_61" toJunction="3way_16"/>
<trip id="348" depart="435.0" fromJunction="3way_6" toJunction="3way_5"/>
<trip id="349" depart="436.25" fromJunction="3way_15" toJunction="3way_61"/>
<trip id="350" depart="437.5" fromJunction="3way_4" toJunction="3way_59"/>
<trip id="351" depart="438.75" fromJunction="4way_37" toJunction="3way_4"/>
<trip id="352" depart="440.0" fromJunction="4way_34" toJunction="3way_39"/>
<trip id="353" depart="441.25" fromJunction="4way_33" toJunction="4way_44"/>
<trip id="354" depart="442.5" fromJunction="3way_55" toJunction="3way_39"/>
<trip id="355" depart="443.75" fromJunction="4way_18" toJunction="4way_17"/>
<trip id="356" depart="445.0" fromJunction="4way_44" toJunction="3way_32"/>
<trip id="357" depart="446.25" fromJunction="4way_22" toJunction="4way_36"/>
<trip id="358" depart="447.5" fromJunction="4way_53" toJunction="3way_2"/>
<trip id="359" depart="448.75" fromJunction="4way_45" toJunction="3way_8"/>
<trip id="360" depart="450.0" fromJunction="4way_54" toJunction="4way_51"/>
<trip id="361" depart="451.25" fromJunction="3way_24" toJunction="4way_36"/>
<trip id="362" depart="452.5" fromJunction="3way_16" toJunction="4way_10"/>
<trip id="363" depart="453.75" fromJunction="3way_59" toJunction="3way_24"/>
<trip id="364" depart="455.0" fromJunction="4way_43" toJunction="4way_49"/>
<trip id="365" depart="456.25" fromJunction="4way_18" toJunction="3way_58"/>
<trip id="366" depart="457.5" fromJunction="3way_39" toJunction="3way_23"/>
<trip id="367" depart="458.75" fromJunction="4way_46" toJunction="3way_3"/>
<trip id="368" depart="460.0" fromJunction="3way_47" toJunction="3way_1"/>
<trip id="369" depart="461.25" fromJunction="3way_5" toJunction="4way_11"/>
<trip id="370" depart="462.5" fromJunction="4way_20" toJunction="4way_45"/>
<trip id="371" depart="463.75" fromJunction="4way_10" toJunction="4way_38"/>
<trip id="372" depart="465.0" fromJunction="4way_26" toJunction="3way_48"/>
<trip id="373" depart="466.25" fromJunction="4way_18" toJunction="4way_22"/>
<trip id="374" depart="467.5" fromJunction="4way_45" toJunction="3way_58"/>
<trip id="375" depart="468.75" fromJunction="3way_1" toJunction="3way_16"/>
<trip id="376" depart="470.0" fromJunction="3way_40" toJunction="3way_60"/>
<trip id="377" depart="471.25" fromJunction="4way_33" toJunction="4way_37"/>
<trip id="378" depart="472.5" fromJunction="3way_32" toJunction="4way_25"/>
<trip id="379" depart="473.75" fromJunction="4way_30" toJunction="4way_45"/>
<trip id="380" depart="475.0" fromJunction="3way_16" toJunction="4way_54"/>
<trip id="381" depart="476.25" fromJunction="4way_52" toJunction="4way_38"/>
<trip id="382" depart="477.5" fromJunction="3way_60" toJunction="4way_43"/>
<trip id="383" depart="478.75" fromJunction="3way_39" toJunction="3way_62"/>
<trip id="384" depart="480.0" fromJunction="3way_57" toJunction="4way_22"/>
<trip id="385" depart="481.25" fromJunction="4way_49" toJunction="4way_33"/>
<trip id="386" depart="482.5" fromJunction="4way_29" toJunction="4way_44"/>
<trip id="387" depart="483.75" fromJunction="4way_17" toJunction="3way_31"/>
<trip id="388" depart="485.0" fromJunction="4way_21" toJunction="4way_29"/>
<trip id="389" depart="486.25" fromJunction="3way_39" toJunction="3way_15"/>
<trip id="390" depart="487.5" fromJunction="3way_5" toJunction="3way_48"/>
<trip id="391" depart="488.75" fromJunction="3way_15" toJunction="4way_17"/>
<trip id="392" depart="490.0" fromJunction="3way_60" toJunction="4way_42"/>
<trip id="393" depart="491.25" fromJunction="3way_23" toJunction="4way_50"/>