<routes xmlns:xsi="http://www.w3.org/2001/XMLSchema-instance" xsi:noNamespaceSchemaLocation="http://sumo.dlr.de/xsd/routes_file.xsd">
<trip id="0" depart="0.0" fromJunction="4way_54" toJunction="4way_81"/>
<trip id="1" depart="0.1904" fromJunction="4way_66" toJunction="4way_67"/>
<trip id="2" depart="0.3808" fromJunction="4way_202" toJunction="4way_49"/>
<trip id="3" depart="0.5712" fromJunction="4way_57" toJunction="4way_94"/>
<trip id="4" depart="0.7616" fromJunction="4way_108" toJunction="4way_88"/>
<trip id="5" depart="0.9520000000000001" fromJunction="4way_200" toJunction="4way_100"/>
<trip id="6" depart="1.1424" fromJunction="4way_162" toJunction="4way_141"/>
<trip id="7" depart="1.3328000000000002" fromJunction="3way_119" toJunction="3way_59"/>
<trip id="8" depart="1.5232" fromJunction="4way_56" toJunction="3way_5"/>
<trip id="9" depart="1.7136" fromJunction="4way_176" toJunction="4way_55"/>
<trip id="10" depart="1.9040000000000001" fromJunction="4way_130" toJunction="4way_148"/>
<trip id="11" depart="2.0944000000000003" fromJunction="4way_70" toJunction="4way_169"/>
<trip id="12" depart="2.2848" fromJunction="4way_187" toJunction="3way_223"/>
<trip id="13" depart="2.4752" fromJunction="4way_28" toJunction="3way_218"/>
<trip id="14" depart="2.6656000000000004" fromJunction="4way_19" toJunction="4way_185"/>
<trip id="15" depart="2.8560000000000003" fromJunction="4way_55" toJunction="4way_106"/>
<trip id="16" depart="3.0464" fromJunction="4way_141" toJunction="4way_154"/>
<trip id="17" depart="3.2368" fromJunction="4way_112" toJunction="3way_5"/>
<trip id="18" depart="3.4272" fromJunction="4way_112" toJunction="4way_97"/>
<trip id="19" depart="3.6176000000000004" fromJunction="4way_128" toJunction="4way_28"/>
<trip id="20" depart="3.8080000000000003" fromJunction="4way_94" toJunction="4way_33"/>
<trip id="21" depart="3.9984" fromJunction="3way_29" toJunction="4way_188"/>
<trip id="22" depart="4.1888000000000005" fromJunction="4way_98" toJunction="4way_83"/>
<trip id="23" depart="4.3792" fromJunction="3way_221" toJunction="3way_90"/>
<trip id="24" depart="4.5696" fromJunction="4way_48" toJunction="4way_77"/>
<trip id="25" depart="4.760000000000001" fromJunction="4way_94" toJunction="4way_156"/>
<trip id="26" depart="4.9504" fromJunction="3way_164" toJunction="4way_178"/>
<trip id="27" depart="5.1408000000000005" fromJunction="3way_214" toJunction="3way_90"/>
<trip id="28" depart="5.331200000000001" fromJunction="4way_61" toJunction="4way_38"/>
<trip id="29" depart="5.5216" fromJunction="4way_46" toJunction="4way_199"/>
<trip id="30" depart="5.712000000000001" fromJunction="3way_194" toJunction="3way_214"/>
<trip id="31" depart="5.9024" fromJunction="3way_219" toJunction="4way_53"/>
<trip id="32" depart="6.0928" fromJunction="4way_63" toJunction="3way_135"/>
<trip id="33" depart="6.283200000000001" fromJunction="3way_149" toJunction="4way_205"/>
<trip id="34" depart="6.4736" fromJunction="3way_149" toJunction="4way_71"/>
<trip id="35" depart="6.664000000000001" fromJunction="4way_199" toJunction="4way_133"/>
<trip id="36" depart="6.8544" fromJunction="4way_67" toJunction="4way_133"/>
<trip id="37" depart="7.0448" fromJunction="3way_9" toJunction="4way_129"/>
<trip id="38" depart="7.235200000000001" fromJunction="3way_223" toJunction="4way_166"/>
<trip id="39" depart="7.4256" fromJunction="3way_223" toJunction="4way_17"/>
<trip id="40" depart="7.6160000000000005" fromJunction="4way_19" toJunction="4way_92"/>
<trip id="41" depart="7.806400000000001" fromJunction="4way_173" toJunction="3way_44"/>
<trip id="42" depart="7.9968" fromJunction="4way_106" toJunction="4way_141"/>
<trip id="43" depart="8.1872" fromJunction="3way_134" toJunction="4way_185"/>
<trip id="44" depart="8.377600000000001" fromJunction="4way_177" toJunction="4way_171"/>
<trip id="45" depart="8.568000000000001" fromJunction="4way_83" toJunction="4way_92"/>
<trip id="46" depart="8.7584" fromJunction="4way_54" toJunction="3way_220"/>
<trip id="47" depart="8.9488" fromJunction="3way_180" toJunction="4way_181"/>
<trip id="48" depart="9.1392" fromJunction="3way_5" toJunction="4way_201"/>
<trip id="49" depart="9.329600000000001" fromJunction="3way_2" toJunction="4way_41"/>
<trip id="50" depart="9.520000000000001" fromJunction="4way_121" toJunction="4way_113"/>
<trip id="51" depart="9.7104" fromJunction="4way_88" toJunction="4way_114"/>
<trip id="52" depart="9.9008" fromJunction="4way_171" toJunction="4way_46"/>
<trip id="53" depart="10.0912" fromJunction="4way_156" toJunction="4way_22"/>
<trip id="54" depart="10.281600000000001" fromJunction="4way_58" toJunction="3way_45"/>
<trip id="55" depart="10.472000000000001" fromJunction="4way_101" toJunction="4way_124"/>
<trip id="56" depart="10.662400000000002" fromJunction="4way_17" toJunction="4way_188"/>
<trip id="57" depart="10.8528" fromJunction="4way_153" toJunction="4way_175"/>
<trip id="58" depart="11.0432" fromJunction="4way_186" toJunction="4way_206"/>
<trip id="59" depart="11.233600000000001" fromJunction="4way_173" toJunction="4way_206"/>
<trip id="60" depart="11.424000000000001" fromJunction="4way_110" toJunction="4way_84"/>
<trip id="61" depart="11.614400000000002" fromJunction="4way_202" toJunction="4way_73"/>
<trip id="62" depart="11.8048" fromJunction="4way_82" toJunction="4way_49"/>
<trip id="63" depart="11.9952" fromJunction="4way_32" toJunction="3way_5"/>
<trip id="64" depart="12.1856" fromJunction="4way_196" toJunction="4way_53"/>
<trip id="65" depart="12.376000000000001" fromJunction="4way_64" toJunction="4way_112"/>
<trip id="66" depart="12.566400000000002" fromJunction="4way_17" toJunction="3way_220"/>
<trip id="67" depart="12.7568" fromJunction="4way_22" toJunction="4way_141"/>
<trip id="68" depart="12.9472" fromJunction="4way_38" toJunction="4way_156"/>
<trip id="69" depart="13.1376" fromJunction="4way_79" toJunction="4way_38"/>
<trip id="70" depart="13.328000000000001" fromJunction="4way_63" toJunction="4way_72"/>
<trip id="71" depart="13.518400000000002" fromJunction="4way_57" toJunction="4way_94"/>
<trip id="72" depart="13.7088" fromJunction="4way_203" toJunction="4way_160"/>
<trip id="73" depart="13.8992" fromJunction="4way_147" toJunction="3way_164"/>
<trip id="74" depart="14.0896" fromJunction="4way_208" toJunction="4way_39"/>
<trip id="75" depart="14.280000000000001" fromJunction="4way_161" toJunction="3way_216"/>
<trip id="76" depart="14.470400000000001" fromJunction="4way_112" toJunction="3way_214"/>
<trip id="77" depart="14.660800000000002" fromJunction="4way_101" toJunction="3way_222"/>
<trip id="78" depart="14.8512" fromJunction="4way_141" toJunction="4way_160"/>
<trip id="79" depart="15.0416" fromJunction="3way_59" toJunction="4way_183"/>
<trip id="80" depart="15.232000000000001" fromJunction="4way_154" toJunction="4way_188"/>
<trip id="81" depart="15.422400000000001" fromJunction="4way_161" toJunction="4way_69"/>
<trip id="82" depart="15.612800000000002" fromJunction="4way_131" toJunction="4way_133"/>
<trip id="83" depart="15.8032" fromJunction="4way_33" toJunction="3way_3"/>
<trip id="84" depart="15.9936" fromJunction="3way_212" toJunction="4way_99"/>
<trip id="85" depart="16.184" fromJunction="3way_13" toJunction="4way_185"/>
<trip id="86" depart="16.3744" fromJunction="3way_5" toJunction="3way_120"/>
<trip id="87" depart="16.5648" fromJunction="3way_45" toJunction="4way_115"/>
<trip id="88" depart="16.755200000000002" fromJunction="4way_177" toJunction="4way_182"/>
<trip id="89" depart="16.945600000000002" fromJunction="3way_8" toJunction="4way_203"/>
<trip id="90" depart="17.136000000000003" fromJunction="4way_127" toJunction="3way_213"/>
<trip id="91" depart="17.3264" fromJunction="4way_16" toJunction="4way_171"/>
<trip id="92" depart="17.5168" fromJunction="4way_97" toJunction="4way_192"/>
<trip id="93" depart="17.7072" fromJunction="4way_22" toJunction="4way_36"/>
<trip id="94" depart="17.8976" fromJunction="4way_62" toJunction="4way_99"/>
<trip id="95" depart="18.088" fromJunction="3way_90" toJunction="4way_168"/>
<trip id="96" depart="18.2784" fromJunction="4way_28" toJunction="3way_165"/>
<trip id="97" depart="18.4688" fromJunction="4way_80" toJunction="4way_129"/>
<trip id="98" depart="18.659200000000002" fromJunction="4way_76" toJunction="3way_30"/>
<trip id="99" depart="18.849600000000002" fromJunction="4way_94" toJunction="3way_13"/>
<trip id="100" depart="19.040000000000003" fromJunction="4way_173" toJunction="4way_62"/>
<trip id="101" depart="19.230400000000003" fromJunction="3way_195" toJunction="4way_93"/>
<trip id="102" depart="19.4208" fromJunction="3way_44" toJunction="3way_6"/>
<trip id="103" depart="19.6112" fromJunction="4way_154" toJunction="4way_128"/>
<trip id="104" depart="19.8016" fromJunction="4way_72" toJunction="4way_36"/>
<trip id="105" depart="19.992" fromJunction="3way_75" toJunction="4way_178"/>
<trip id="106" depart="20.1824" fromJunction="4way_106" toJunction="4way_68"/>
<trip id="107" depart="20.3728" fromJunction="4way_189" toJunction="3way_5"/>
<trip id="108" depart="20.563200000000002" fromJunction="4way_108" toJunction="4way_92"/>
<trip id="109" depart="20.753600000000002" fromJunction="4way_41" toJunction="4way_22"/>
<trip id="110" depart="20.944000000000003" fromJunction="4way_176" toJunction="4way_157"/>
<trip id="111" depart="21.134400000000003" fromJunction="4way_130" toJunction="4way_136"/>
<trip id="112" depart="21.324800000000003" fromJunction="4way_58" toJunction="3way_165"/>
<trip id="113" depart="21.5152" fromJunction="3way_75" toJunction="4way_143"/>
<trip id="114" depart="21.7056" fromJunction="4way_99" toJunction="4way_43"/>
<trip id="115" depart="21.896" fromJunction="3way_75" toJunction="4way_76"/>
<trip id="116" depart="22.0864" fromJunction="3way_6" toJunction="4way_170"/>
<trip id="117" depart="22.2768" fromJunction="4way_49" toJunction="3way_105"/>
<trip id="118" depart="22.467200000000002" fromJunction="4way_184" toJunction="4way_78"/>
<trip id="119" depart="22.657600000000002" fromJunction="4way_201" toJunction="4way_151"/>
<trip id="120" depart="22.848000000000003" fromJunction="3way_209" toJunction="4way_146"/>
<trip id="121" depart="23.038400000000003" fromJunction="3way_220" toJunction="4way_170"/>
<trip id="122" depart="23.228800000000003" fromJunction="4way_153" toJunction="4way_54"/>
<trip id="123" depart="23.4192" fromJunction="3way_180" toJunction="4way_126"/>
<trip id="124" depart="23.6096" fromJunction="4way_65" toJunction="3way_217"/>
<trip id="125" depart="23.8" fromJunction="4way_207" toJunction="4way_18"/>
<trip id="126" depart="23.9904" fromJunction="4way_159" toJunction="4way_25"/>
<trip id="127" depart="24.1808" fromJunction="3way_104" toJunction="4way_87"/>
<trip id="128" depart="24.3712" fromJunction="4way_201" toJunction="4way_96"/>
<trip id="129" depart="24.561600000000002" fromJunction="4way_196" toJunction="4way_88"/>
<trip id="130" depart="24.752000000000002" fromJunction="3way_164" toJunction="4way_31"/>
<trip id="131" depart="24.942400000000003" fromJunction="4way_177" toJunction="3way_4"/>
<trip id="132" depart="25.132800000000003" fromJunction="4way_85" toJunction="4way_98"/>
<trip id="133" depart="25.323200000000003" fromJunction="4way_201" toJunction="4way_166"/>
<trip id="134" depart="25.5136" fromJunction="4way_65" toJunction="3way_44"/>
<trip id="135" depart="25.704" fromJunction="4way_191" toJunction="4way_148"/>
<trip id="136" depart="25.8944" fromJunction="4way_88" toJunction="4way_152"/>
<trip id="137" depart="26.0848" fromJunction="4way_43" toJunction="3way_15"/>
<trip id="138" depart="26.2752" fromJunction="4way_130" toJunction="4way_28"/>
<trip id="139" depart="26.465600000000002" fromJunction="4way_191" toJunction="4way_157"/>
<trip id="140" depart="26.656000000000002" fromJunction="4way_101" toJunction="4way_196"/>
<trip id="141" depart="26.846400000000003" fromJunction="3way_3" toJunction="4way_112"/>
<trip id="142" depart="27.036800000000003" fromJunction="3way_217" toJunction="4way_182"/>
<trip id="143" depart="27.227200000000003" fromJunction="4way_35" toJunction="4way_148"/>
<trip id="144" depart="27.4176" fromJunction="4way_187" toJunction="4way_95"/>
<trip id="145" depart="27.608" fromJunction="3way_219" toJunction="4way_63"/>
<trip id="146" depart="27.7984" fromJunction="3way_165" toJunction="4way_205"/>
<trip id="147" depart="27.9888" fromJunction="3way_45" toJunction="4way_155"/>
<trip id="148" depart="28.1792" fromJunction="4way_146" toJunction="3way_149"/>
<trip id="149" depart="28.369600000000002" fromJunction="4way_88" toJunction="4way_133"/>
<trip id="150" depart="28.560000000000002" fromJunction="4way_55" toJunction="4way_102"/>
<trip id="151" depart="28.750400000000003" fromJunction="3way_89" toJunction="4way_137"/>
<trip id="152" depart="28.940800000000003" fromJunction="3way_15" toJunction="4way_198"/>
<trip id="153" depart="29.131200000000003" fromJunction="3way_12" toJunction="3way_220"/>
<trip id="154" depart="29.321600000000004" fromJunction="3way_3" toJunction="4way_84"/>
<trip id="155" depart="29.512" fromJunction="3way_217" toJunction="4way_40"/>
<trip id="156" depart="29.7024" fromJunction="3way_119" toJunction="3way_89"/>
<trip id="157" depart="29.8928" fromJunction="4way_46" toJunction="4way_98"/>
<trip id="158" depart="30.0832" fromJunction="4way_111" toJunction="4way_34"/>
<trip id="159" depart="30.273600000000002" fromJunction="4way_84" toJunction="4way_146"/>
<trip id="160" depart="30.464000000000002" fromJunction="3way_220" toJunction="4way_121"/>
<trip id="161" depart="30.654400000000003" fromJunction="4way_32" toJunction="3way_13"/>
<trip id="162" depart="30.844800000000003" fromJunction="4way_154" toJunction="4way_91"/>
<trip id="163" depart="31.035200000000003" fromJunction="4way_173" toJunction="4way_143"/>
<trip id="164" depart="31.225600000000004" fromJunction="4way_93" toJunction="4way_166"/>
<trip id="165" depart="31.416000000000004" fromJunction="4way_100" toJunction="3way_180"/>
<trip id="166" depart="31.6064" fromJunction="4way_188" toJunction="3way_13"/>
<trip id="167" depart="31.7968" fromJunction="4way_55" toJunction="4way_70"/>
<trip id="168" depart="31.9872" fromJunction="4way_78" toJunction="4way_91"/>
<trip id="169" depart="32.177600000000005" fromJunction="4way_136" toJunction="4way_201"/>
<trip id="170" depart="32.368" fromJunction="3way_135" toJunction="4way_63"/>
<trip id="171" depart="32.5584" fromJunction="3way_10" toJunction="4way_169"/>
<trip id="172" depart="32.7488" fromJunction="3way_89" toJunction="4way_130"/>
<trip id="173" depart="32.9392" fromJunction="4way_47" toJunction="4way_170"/>
<trip id="174" depart="33.1296" fromJunction="4way_88" toJunction="4way_171"/>
<trip id="175" depart="33.32" fromJunction="3way_8" toJunction="4way_202"/>
<trip id="176" depart="33.510400000000004" fromJunction="4way_140" toJunction="4way_79"/>
<trip id="177" depart="33.7008" fromJunction="4way_128" toJunction="4way_36"/>
<trip id="178" depart="33.891200000000005" fromJunction="3way_221" toJunction="4way_151"/>
<trip id="179" depart="34.0816" fromJunction="4way_73" toJunction="4way_138"/>
<trip id="180" depart="34.272000000000006" fromJunction="4way_87" toJunction="3way_165"/>
<trip id="181" depart="34.4624" fromJunction="4way_154" toJunction="4way_66"/>
<trip id="182" depart="34.6528" fromJunction="4way_169" toJunction="4way_206"/>
<trip id="183" depart="34.8432" fromJunction="4way_168" toJunction="4way_84"/>
<trip id="184" depart="35.0336" fromJunction="4way_158" toJunction="4way_87"/>
<trip id="185" depart="35.224000000000004" fromJunction="4way_122" toJunction="4way_188"/>
<trip id="186" depart="35.4144" fromJunction="4way_172" toJunction="4way_189"/>
<trip id="187" depart="35.604800000000004" fromJunction="3way_214" toJunction="4way_31"/>
<trip id="188" depart="35.7952" fromJunction="4way_73" toJunction="4way_130"/>
<trip id="189" depart="35.985600000000005" fromJunction="4way_22" toJunction="4way_169"/>
<trip id="190" depart="36.176" fromJunction="4way_169" toJunction="4way_131"/>
<trip id="191" depart="36.366400000000006" fromJunction="4way_171" toJunction="4way_58"/>
<trip id="192" depart="36.5568" fromJunction="4way_102" toJunction="4way_205"/>
<trip id="193" depart="36.7472" fromJunction="3way_214" toJunction="4way_190"/>
<trip id="194" depart="36.9376" fromJunction="4way_168" toJunction="4way_142"/>
<trip id="195" depart="37.128" fromJunction="4way_49" toJunction="3way_29"/>
<trip id="196" depart="37.318400000000004" fromJunction="4way_101" toJunction="4way_91"/>
<trip id="197" depart="37.5088" fromJunction="4way_73" toJunction="3way_8"/>
<trip id="198" depart="37.699200000000005" fromJunction="3way_180" toJunction="3way_4"/>
<trip id="199" depart="37.8896" fromJunction="4way_177" toJunction="4way_168"/>
<trip id="200" depart="38.080000000000005" fromJunction="4way_28" toJunction="3way_164"/>
<trip id="201" depart="38.2704" fromJunction="4way_154" toJunction="4way_176"/>
<trip id="202" depart="38.460800000000006" fromJunction="3way_15" toJunction="4way_122"/>
<trip id="203" depart="38.6512" fromJunction="3way_8" toJunction="4way_97"/>
<trip id="204" depart="38.8416" fromJunction="4way_64" toJunction="3way_4"/>
<trip id="205" depart="39.032000000000004" fromJunction="4way_61" toJunction="3way_59"/>
<trip id="206" depart="39.2224" fromJunction="4way_61" toJunction="3way_60"/>
<trip id="207" depart="39.412800000000004" fromJunction="3way_3" toJunction="3way_221"/>
<trip id="208" depart="39.6032" fromJunction="4way_112" toJunction="3way_209"/>
<trip id="209" depart="39.793600000000005" fromJunction="4way_178" toJunction="4way_133"/>
<trip id="210" depart="39.984" fromJunction="3way_213" toJunction="4way_198"/>
<trip id="211" depart="40.174400000000006" fromJunction="4way_80" toJunction="4way_187"/>
<trip id="212" depart="40.3648" fromJunction="3way_44" toJunction="4way_178"/>
<trip id="213" depart="40.555200000000006" fromJunction="4way_181" toJunction="4way_85"/>
<trip id="214" depart="40.7456" fromJunction="4way_68" toJunction="4way_31"/>
<trip id="215" depart="40.936" fromJunction="4way_83" toJunction="4way_46"/>
<trip id="216" depart="41.126400000000004" fromJunction="4way_49" toJunction="4way_170"/>
<trip id="217" depart="41.3168" fromJunction="4way_181" toJunction="4way_96"/>
<trip id="218" depart="41.507200000000005" fromJunction="4way_19" toJunction="4way_24"/>
<trip id="219" depart="41.6976" fromJunction="4way_41" toJunction="4way_33"/>
<trip id="220" depart="41.888000000000005" fromJunction="3way_11" toJunction="4way_162"/>
<trip id="221" depart="42.0784" fromJunction="4way_197" toJunction="3way_15"/>
<trip id="222" depart="42.268800000000006" fromJunction="4way_163" toJunction="4way_190"/>
<trip id="223" depart="42.4592" fromJunction="4way_87" toJunction="4way_118"/>
<trip id="224" depart="42.64960000000001" fromJunction="4way_193" toJunction="4way_17"/>
<trip id="225" depart="42.84" fromJunction="3way_179" toJunction="4way_61"/>
<trip id="226" depart="43.0304" fromJunction="3way_15" toJunction="4way_58"/>
<trip id="227" depart="43.220800000000004" fromJunction="3way_13" toJunction="4way_158"/>
<trip id="228" depart="43.4112" fromJunction="4way_206" toJunction="4way_99"/>
<trip id="229" depart="43.601600000000005" fromJunction="4way_93" toJunction="4way_136"/>
<trip id="230" depart="43.792" fromJunction="4way_159" toJunction="4way_78"/>
<trip id="231" depart="43.982400000000005" fromJunction="3way_212" toJunction="4way_16"/>
<trip id="232" depart="44.1728" fromJunction="4way_47" toJunction="4way_139"/>
<trip id="233" depart="44.363200000000006" fromJunction="4way_16" toJunction="4way_71"/>
<trip id="234" depart="44.5536" fromJunction="4way_28" toJunction="4way_125"/>
<trip id="235" depart="44.744" fromJunction="4way_161" toJunction="4way_172"/>
<trip id="236" depart="44.934400000000004" fromJunction="4way_159" toJunction="4way_207"/>
<trip id="237" depart="45.1248" fromJunction="4way_103" toJunction="4way_188"/>
<trip id="238" depart="45.315200000000004" fromJunction="4way_139" toJunction="4way_193"/>
<trip id="239" depart="45.5056" fromJunction="4way_196" toJunction="3way_59"/>
<trip id="240" depart="45.696000000000005" fromJunction="4way_34" toJunction="3way_216"/>
<trip id="241" depart="45.8864" fromJunction="4way_67" toJunction="3way_220"/>
<trip id="242" depart="46.076800000000006" fromJunction="4way_57" toJunction="4way_108"/>
<trip id="243" depart="46.2672" fromJunction="4way_66" toJunction="4way_103"/>
<trip id="244" depart="46.457600000000006" fromJunction="4way_22" toJunction="4way_136"/>
<trip id="245" depart="46.648" fromJunction="4way_183" toJunction="4way_72"/>
<trip id="246" depart="46.8384" fromJunction="4way_136" toJunction="4way_96"/>
<trip id="247" depart="47.028800000000004" fromJunction="4way_168" toJunction="4way_154"/>
<trip id="248" depart="47.2192" fromJunction="4way_125" toJunction="4way_46"/>
<trip id="249" depart="47.409600000000005" fromJunction="4way_78" toJunction="4way_62"/>
<trip id="250" depart="47.6" fromJunction="4way_159" toJunction="4way_200"/>
<trip id="251" depart="47.790400000000005" fromJunction="4way_162" toJunction="4way_137"/>
<trip id="252" depart="47.9808" fromJunction="3way_11" toJunction="4way_146"/>
<trip id="253" depart="48.171200000000006" fromJunction="4way_124" toJunction="4way_76"/>
<trip id="254" depart="48.3616" fromJunction="4way_197" toJunction="3way_179"/>
<trip id="255" depart="48.55200000000001" fromJunction="4way_128" toJunction="4way_129"/>
<trip id="256" depart="48.7424" fromJunction="4way_39" toJunction="4way_127"/>
<trip id="257" depart="48.9328" fromJunction="4way_167" toJunction="3way_105"/>
<trip id="258" depart="49.123200000000004" fromJunction="4way_206" toJunction="4way_113"/>
<trip id="259" depart="49.3136" fromJunction="4way_166" toJunction="4way_66"/>
<trip id="260" depart="49.504000000000005" fromJunction="4way_24" toJunction="3way_7"/>
<trip id="261" depart="49.6944" fromJunction="4way_78" toJunction="3way_2"/>
<trip id="262" depart="49.884800000000006" fromJunction="4way_147" toJunction="4way_21"/>
<trip id="263" depart="50.0752" fromJunction="4way_183" toJunction="3way_119"/>
<trip id="264" depart="50.265600000000006" fromJunction="4way_167" toJunction="3way_6"/>
<trip id="265" depart="50.456" fromJunction="4way_151" toJunction="4way_127"/>
<trip id="266" depart="50.64640000000001" fromJunction="3way_209" toJunction="3way_90"/>
<trip id="267" depart="50.836800000000004" fromJunction="4way_173" toJunction="4way_171"/>
<trip id="268" depart="51.0272" fromJunction="4way_43" toJunction="4way_98"/>
<trip id="269" depart="51.217600000000004" fromJunction="4way_23" toJunction="3way_1"/>
<trip id="270" depart="51.408" fromJunction="4way_22" toJunction="4way_52"/>
<trip id="271" depart="51.598400000000005" fromJunction="3way_4" toJunction="4way_88"/>
<trip id="272" depart="51.7888" fromJunction="4way_175" toJunction="4way_173"/>
<trip id="273" depart="51.979200000000006" fromJunction="4way_137" toJunction="4way_140"/>
<trip id="274" depart="52.1696" fromJunction="3way_149" toJunction="4way_100"/>
<trip id="275" depart="52.36000000000001" fromJunction="4way_170" toJunction="4way_109"/>
<trip id="276" depart="52.5504" fromJunction="3way_134" toJunction="4way_173"/>
<trip id="277" depart="52.74080000000001" fromJunction="4way_198" toJunction="3way_30"/>
<trip id="278" depart="52.931200000000004" fromJunction="4way_42" toJunction="4way_127"/>
<trip id="279" depart="53.1216" fromJunction="3way_220" toJunction="4way_112"/>
<trip id="280" depart="53.312000000000005" fromJunction="4way_176" toJunction="4way_148"/>
<trip id="281" depart="53.5024" fromJunction="4way_147" toJunction="4way_125"/>
<trip id="282" depart="53.692800000000005" fromJunction="4way_162" toJunction="4way_51"/>
<trip id="283" depart="53.8832" fromJunction="4way_103" toJunction="4way_41"/>
<trip id="284" depart="54.073600000000006" fromJunction="3way_8" toJunction="4way_147"/>
<trip id="285" depart="54.264" fromJunction="4way_123" toJunction="3way_211"/>
<trip id="286" depart="54.45440000000001" fromJunction="4way_32" toJunction="4way_58"/>
<trip id="287" depart="54.644800000000004" fromJunction="4way_27" toJunction="3way_214"/>
<trip id="288" depart="54.8352" fromJunction="4way_102" toJunction="4way_124"/>
<trip id="289" depart="55.025600000000004" fromJunction="4way_68" toJunction="3way_214"/>
<trip id="290" depart="55.216" fromJunction="3way_74" toJunction="4way_109"/>
<trip id="291" depart="55.406400000000005" fromJunction="4way_46" toJunction="4way_173"/>
<trip id="292" depart="55.5968" fromJunction="3way_29" toJunction="3way_9"/>
<trip id="293" depart="55.787200000000006" fromJunction="4way_102" toJunction="3way_29"/>
<trip id="294" depart="55.9776" fromJunction="4way_72" toJunction="4way_129"/>
<trip id="295" depart="56.168000000000006" fromJunction="4way_200" toJunction="4way_98"/>
<trip id="296" depart="56.3584" fromJunction="4way_208" toJunction="4way_47"/>
<trip id="297" depart="56.54880000000001" fromJunction="4way_20" toJunction="4way_48"/>
<trip id="298" depart="56.739200000000004" fromJunction="4way_148" toJunction="4way_93"/>
<trip id="299" depart="56.9296" fromJunction="4way_122" toJunction="3way_211"/>
<trip id="300" depart="57.120000000000005" fromJunction="3way_29" toJunction="4way_128"/>
<trip id="301" depart="57.3104" fromJunction="4way_35" toJunction="4way_82"/>
<trip id="302" depart="57.500800000000005" fromJunction="4way_16" toJunction="4way_166"/>
<trip id="303" depart="57.6912" fromJunction="4way_63" toJunction="4way_155"/>
<trip id="304" depart="57.881600000000006" fromJunction="4way_152" toJunction="4way_154"/>
<trip id="305" depart="58.072" fromJunction="3way_220" toJunction="4way_118"/>
<trip id="306" depart="58.26240000000001" fromJunction="4way_167" toJunction="3way_149"/>
<trip id="307" depart="58.4528" fromJunction="4way_53" toJunction="4way_22"/>
<trip id="308" depart="58.64320000000001" fromJunction="4way_208" toJunction="4way_153"/>
<trip id="309" depart="58.833600000000004" fromJunction="4way_69" toJunction="4way_197"/>
<trip id="310" depart="59.024" fromJunction="4way_175" toJunction="4way_172"/>
<trip id="311" depart="59.214400000000005" fromJunction="4way_42" toJunction="4way_133"/>
<trip id="312" depart="59.4048" fromJunction="4way_188" toJunction="4way_204"/>
<trip id="313" depart="59.595200000000006" fromJunction="3way_217" toJunction="4way_152"/>
<trip id="314" depart="59.7856" fromJunction="4way_31" toJunction="3way_29"/>
<trip id="315" depart="59.976000000000006" fromJunction="4way_185" toJunction="4way_79"/>
<trip id="316" depart="60.1664" fromJunction="4way_73" toJunction="4way_40"/>
<trip id="317" depart="60.35680000000001" fromJunction="3way_179" toJunction="3way_209"/>
<trip id="318" depart="60.547200000000004" fromJunction="4way_144" toJunction="4way_22"/>
<trip id="319" depart="60.73760000000001" fromJunction="4way_192" toJunction="4way_101"/>
<trip id="320" depart="60.928000000000004" fromJunction="4way_168" toJunction="4way_163"/>
<trip id="321" depart="61.1184" fromJunction="3way_217" toJunction="4way_108"/>
<trip id="322" depart="61.308800000000005" fromJunction="4way_53" toJunction="4way_143"/>
<trip id="323" depart="61.4992" fromJunction="3way_149" toJunction="4way_146"/>
<trip id="324" depart="61.689600000000006" fromJunction="4way_186" toJunction="4way_110"/>
<trip id="325" depart="61.88" fromJunction="3way_212" toJunction="4way_31"/>
<trip id="326" depart="62.07040000000001" fromJunction="3way_13" toJunction="4way_131"/>
<trip id="327" depart="62.2608" fromJunction="3way_209" toJunction="4way_20"/>
<trip id="328" depart="62.45120000000001" fromJunction="4way_148" toJunction="4way_169"/>
<trip id="329" depart="62.641600000000004" fromJunction="4way_131" toJunction="4way_49"/>
<trip id="330" depart="62.83200000000001" fromJunction="4way_121" toJunction="3way_209"/>
<trip id="331" depart="63.022400000000005" fromJunction="4way_168" toJunction="4way_183"/>
<trip id="332" depart="63.2128" fromJunction="4way_182" toJunction="4way_98"/>
<trip id="333" depart="63.403200000000005" fromJunction="4way_187" toJunction="4way_39"/>
<trip id="334" depart="63.5936" fromJunction="4way_79" toJunction="4way_168"/>
<trip id="335" depart="63.784000000000006" fromJunction="3way_59" toJunction="4way_97"/>
<trip id="336" depart="63.9744" fromJunction="4way_38" toJunction="4way_205"/>
<trip id="337" depart="64.1648" fromJunction="4way_36" toJunction="4way_84"/>
<trip id="338" depart="64.35520000000001" fromJunction="4way_183" toJunction="3way_194"/>
<trip id="339" depart="64.54560000000001" fromJunction="4way_92" toJunction="4way_183"/>
<trip id="340" depart="64.736" fromJunction="4way_114" toJunction="3way_7"/>
<trip id="341" depart="64.9264" fromJunction="4way_67" toJunction="3way_194"/>
<trip id="342" depart="65.1168" fromJunction="4way_172" toJunction="4way_203"/>
<trip id="343" depart="65.30720000000001" fromJunction="3way_164" toJunction="4way_73"/>
<trip id="344" depart="65.4976" fromJunction="3way_7" toJunction="4way_161"/>
<trip id="345" depart="65.688" fromJunction="4way_183" toJunction="4way_36"/>
<trip id="346" depart="65.8784" fromJunction="4way_48" toJunction="4way_185"/>
<trip id="347" depart="66.06880000000001" fromJunction="3way_5" toJunction="3way_150"/>
<trip id="348" depart="66.2592" fromJunction="4way_86" toJunction="4way_170"/>
<trip id="349" depart="66.4496" fromJunction="3way_45" toJunction="4way_78"/>
<trip id="350" depart="66.64" fromJunction="3way_104" toJunction="3way_89"/>
<trip id="351" depart="66.83040000000001" fromJunction="3way_164" toJunction="3way_60"/>
<trip id="352" depart="67.02080000000001" fromJunction="3way_44" toJunction="4way_106"/>
<trip id="353" depart="67.2112" fromJunction="4way_131" toJunction="3way_44"/>
<trip id="354" depart="67.4016" fromJunction="4way_111" toJunction="3way_214"/>
<trip id="355" depart="67.592" fromJunction="4way_154" toJunction="4way_40"/>
<trip id="356" depart="67.78240000000001" fromJunction="3way_120" toJunction="3way_216"/>