<routes xmlns:xsi="http://www.w3.org/2001/XMLSchema-instance" xsi:noNamespaceSchemaLocation="http://sumo.dlr.de/xsd/routes_file.xsd">
<trip id="0" depart="0.0" fromJunction="4way_20" toJunction="4way_13"/>
<trip id="1" depart="0.4761" fromJunction="4way_13" toJunction="4way_25"/>
<trip id="2" depart="0.9522" fromJunction="4way_8" toJunction="3way_18"/>
<trip id="3" depart="1.4283000000000001" fromJunction="4way_10" toJunction="3way_12"/>
<trip id="4" depart="1.9044" fromJunction="3way_24" toJunction="4way_22"/>
<trip id="5" depart="2.3805" fromJunction="4way_7" toJunction="4way_15"/>
<trip id="6" depart="2.8566000000000003" fromJunction="4way_16" toJunction="4way_19"/>
<trip id="7" depart="3.3327" fromJunction="4way_21" toJunction="3way_1"/>
<trip id="8" depart="3.8088" fromJunction="4way_27" toJunction="4way_9"/>
<trip id="9" depart="4.2849" fromJunction="4way_15" toJunction="4way_28"/>
<trip id="10" depart="4.761" fromJunction="4way_9" toJunction="3way_12"/>
<trip id="11" depart="5.2371" fromJunction="4way_8" toJunction="3way_4"/>
<trip id="12" depart="5.7132000000000005" fromJunction="4way_22" toJunction="3way_11"/>
<trip id="13" depart="6.1893" fromJunction="3way_18" toJunction="4way_7"/>
<trip id="14" depart="6.6654" fromJunction="4way_9" toJunction="3way_34"/>
<trip id="15" depart="7.141500000000001" fromJunction="4way_19" toJunction="3way_12"/>
<trip id="16" depart="7.6176" fromJunction="4way_25" toJunction="3way_1"/>
<trip id="17" depart="8.0937" fromJunction="4way_14" toJunction="4way_22"/>
<trip id="18" depart="8.5698" fromJunction="3way_18" toJunction="3way_31"/>
<trip id="19" depart="9.0459" fromJunction="3way_2" toJunction="4way_20"/>
<trip id="20" depart="9.522" fromJunction="3way_11" toJunction="3way_23"/>
<trip id="21" depart="9.9981" fromJunction="3way_31" toJunction="3way_32"/>
<trip id="22" depart="10.4742" fromJunction="3way_12" toJunction="4way_19"/>
<trip id="23" depart="10.9503" fromJunction="3way_4" toJunction="4way_28"/>
<trip id="24" depart="11.426400000000001" fromJunction="3way_17" toJunction="3way_23"/>
<trip id="25" depart="11.9025" fromJunction="3way_34" toJunction="4way_8"/>
<trip id="26" depart="12.3786" fromJunction="3way_29" toJunction="3way_12"/>
<trip id="27" depart="12.854700000000001" fromJunction="3way_4" toJunction="3way_17"/>
<trip id="28" depart="13.3308" fromJunction="3way_11" toJunction="4way_14"/>
<trip id="29" depart="13.8069" fromJunction="3way_31" toJunction="3way_23"/>
<trip id="30" depart="14.283000000000001" fromJunction="3way_4" toJunction="4way_21"/>
<trip id="31" depart="14.7591" fromJunction="3way_4" toJunction="4way_21"/>
<trip id="32" depart="15.2352" fromJunction="3way_12" toJunction="4way_28"/>
<trip id="33" depart="15.711300000000001" fromJunction="4way_25" toJunction="4way_28"/>
<trip id="34" depart="16.1874" fromJunction="3way_2" toJunction="4way_26"/>
<trip id="35" depart="16.6635" fromJunction="3way_4" toJunction="3way_33"/>
<trip id="36" depart="17.1396" fromJunction="3way_4" toJunction="3way_33"/>
<trip id="37" depart="17.6157" fromJunction="3way_18" toJunction="3way_32"/>
<trip id="38" depart="18.0918" fromJunction="4way_20" toJunction="3way_3"/>
<trip id="39" depart="18.5679" fromJunction="3way_34" toJunction="4way_19"/>
<trip id="40" depart="19.044" fromJunction="3way_4" toJunction="4way_7"/>
<trip id="41" depart="19.5201" fromJunction="4way_16" toJunction="4way_19"/>
<trip id="42" depart="19.9962" fromJunction="4way_14" toJunction="3way_32"/>
<trip id="43" depart="20.4723" fromJunction="4way_20" toJunction="3way_11"/>
<trip id="44" depart="20.9484" fromJunction="3way_17" toJunction="3way_33"/>
<trip id="45" depart="21.424500000000002" fromJunction="3way_1" toJunction="4way_19"/>
<trip id="46" depart="21.9006" fromJunction="3way_1" toJunction="4way_21"/>
<trip id="47" depart="22.3767" fromJunction="3way_34" toJunction="4way_14"/>
<trip id="48" depart="22.852800000000002" fromJunction="4way_22" toJunction="4way_26"/>
<trip id="49" depart="23.3289" fromJunction="4way_19" toJunction="3way_29"/>
<trip id="50" depart="23.805" fromJunction="4way_22" toJunction="3way_29"/>
<trip id="51" depart="24.281100000000002" fromJunction="4way_27" toJunction="3way_12"/>
<trip id="52" depart="24.7572" fromJunction="3way_33" toJunction="4way_20"/>
<trip id="53" depart="25.2333" fromJunction="3way_24" toJunction="4way_21"/>
<trip id="54" depart="25.709400000000002" fromJunction="4way_19" toJunction="4way_10"/>
<trip id="55" depart="26.1855" fromJunction="4way_20" toJunction="4way_10"/>
<trip id="56" depart="26.6616" fromJunction="4way_7" toJunction="4way_26"/>
<trip id="57" depart="27.137700000000002" fromJunction="4way_8" toJunction="4way_22"/>
<trip id="58" depart="27.6138" fromJunction="4way_25" toJunction="3way_18"/>
<trip id="59" depart="28.0899" fromJunction="3way_33" toJunction="3way_1"/>
<trip id="60" depart="28.566000000000003" fromJunction="3way_33" toJunction="4way_14"/>
<trip id="61" depart="29.0421" fromJunction="3way_18" toJunction="4way_25"/>
<trip id="62" depart="29.5182" fromJunction="3way_33" toJunction="3way_11"/>
<trip id="63" depart="29.994300000000003" fromJunction="4way_8" toJunction="4way_19"/>
<trip id="64" depart="30.4704" fromJunction="3way_18" toJunction="4way_8"/>
<trip id="65" depart="30.9465" fromJunction="3way_31" toJunction="4way_10"/>
<trip id="66" depart="31.422600000000003" fromJunction="4way_10" toJunction="3way_18"/>
<trip id="67" depart="31.8987" fromJunction="4way_20" toJunction="4way_15"/>
<trip id="68" depart="32.3748" fromJunction="4way_16" toJunction="3way_4"/>
<trip id="69" depart="32.8509" fromJunction="4way_28" toJunction="4way_20"/>
<trip id="70" depart="33.327" fromJunction="4way_27" toJunction="3way_11"/>
<trip id="71" depart="33.8031" fromJunction="4way_25" toJunction="3way_17"/>
<trip id="72" depart="34.2792" fromJunction="4way_27" toJunction="3way_4"/>
<trip id="73" depart="34.7553" fromJunction="4way_19" toJunction="4way_15"/>
<trip id="74" depart="35.2314" fromJunction="3way_3" toJunction="3way_18"/>
<trip id="75" depart="35.7075" fromJunction="3way_12" toJunction="4way_20"/>
<trip id="76" depart="36.1836" fromJunction="4way_27" toJunction="4way_26"/>
<trip id="77" depart="36.6597" fromJunction="4way_27" toJunction="4way_28"/>
<trip id="78" depart="37.1358" fromJunction="3way_31" toJunction="3way_1"/>
<trip id="79" depart="37.6119" fromJunction="3way_17" toJunction="4way_26"/>
<trip id="80" depart="38.088" fromJunction="3way_2" toJunction="4way_7"/>
<trip id="81" depart="38.5641" fromJunction="3way_1" toJunction="3way_23"/>
<trip id="82" depart="39.0402" fromJunction="3way_29" toJunction="4way_15"/>
<trip id="83" depart="39.5163" fromJunction="4way_16" toJunction="3way_31"/>
<trip id="84" depart="39.9924" fromJunction="3way_2" toJunction="4way_20"/>
<trip id="85" depart="40.4685" fromJunction="4way_25" toJunction="3way_17"/>
<trip id="86" depart="40.9446" fromJunction="3way_29" toJunction="4way_19"/>
<trip id="87" depart="41.420700000000004" fromJunction="4way_25" toJunction="4way_16"/>
<trip id="88" depart="41.8968" fromJunction="4way_19" toJunction="4way_13"/>
<trip id="89" depart="42.3729" fromJunction="3way_33" toJunction="4way_26"/>
<trip id="90" depart="42.849000000000004" fromJunction="3way_23" toJunction="3way_24"/>
<trip id="91" depart="43.3251" fromJunction="4way_22" toJunction="3way_17"/>
<trip id="92" depart="43.8012" fromJunction="3way_6" toJunction="4way_26"/>
<trip id="93" depart="44.277300000000004" fromJunction="3way_34" toJunction="3way_29"/>
<trip id="94" depart="44.7534" fromJunction="3way_18" toJunction="3way_2"/>
<trip id="95" depart="45.2295" fromJunction="4way_20" toJunction="3way_33"/>
<trip id="96" depart="45.705600000000004" fromJunction="3way_17" toJunction="3way_24"/>
<trip id="97" depart="46.1817" fromJunction="3way_3" toJunction="3way_1"/>
<trip id="98" depart="46.6578" fromJunction="3way_12" toJunction="4way_14"/>
<trip id="99" depart="47.133900000000004" fromJunction="4way_10" toJunction="4way_13"/>
<trip id="100" depart="47.61" fromJunction="3way_23" toJunction="4way_28"/>
<trip id="101" depart="48.0861" fromJunction="3way_34" toJunction="4way_14"/>
<trip id="102" depart="48.562200000000004" fromJunction="4way_9" toJunction="3way_1"/>
<trip id="103" depart="49.0383" fromJunction="3way_24" toJunction="3way_32"/>
<trip id="104" depart="49.5144" fromJunction="4way_21" toJunction="4way_19"/>
<trip id="105" depart="49.990500000000004" fromJunction="4way_27" toJunction="4way_8"/>
<trip id="106" depart="50.4666" fromJunction="4way_15" toJunction="3way_34"/>
<trip id="107" depart="50.9427" fromJunction="4way_22" toJunction="3way_17"/>
<trip id="108" depart="51.418800000000005" fromJunction="3way_23" toJunction="4way_14"/>
<trip id="109" depart="51.8949" fromJunction="4way_26" toJunction="4way_22"/>
<trip id="110" depart="52.371" fromJunction="3way_23" toJunction="3way_34"/>
<trip id="111" depart="52.847100000000005" fromJunction="3way_1" toJunction="4way_7"/>
<trip id="112" depart="53.3232" fromJunction="3way_18" toJunction="3way_23"/>
<trip id="113" depart="53.7993" fromJunction="3way_12" toJunction="3way_31"/>
<trip id="114" depart="54.275400000000005" fromJunction="4way_19" toJunction="3way_34"/>
<trip id="115" depart="54.7515" fromJunction="3way_4" toJunction="4way_27"/>
<trip id="116" depart="55.2276" fromJunction="3way_11" toJunction="4way_7"/>
<trip id="117" depart="55.703700000000005" fromJunction="3way_24" toJunction="4way_20"/>
<trip id="118" depart="56.1798" fromJunction="3way_17" toJunction="4way_19"/>
<trip id="119" depart="56.6559" fromJunction="3way_6" toJunction="3way_11"/>
<trip id="120" depart="57.132000000000005" fromJunction="4way_22" toJunction="3way_31"/>
<trip id="121" depart="57.6081" fromJunction="4way_26" toJunction="4way_9"/>
<trip id="122" depart="58.0842" fromJunction="3way_3" toJunction="4way_10"/>
<trip id="123" depart="58.560300000000005" fromJunction="4way_19" toJunction="4way_13"/>
<trip id="124" depart="59.0364" fromJunction="3way_33" toJunction="4way_22"/>
<trip id="125" depart="59.5125" fromJunction="3way_4" toJunction="3way_29"/>
<trip id="126" depart="59.988600000000005" fromJunction="4way_16" toJunction="3way_1"/>
<trip id="127" depart="60.4647" fromJunction="4way_15" toJunction="4way_14"/>
<trip id="128" depart="60.9408" fromJunction="4way_19" toJunction="3way_33"/>
<trip id="129" depart="61.416900000000005" fromJunction="3way_6" toJunction="3way_3"/>
<trip id="130" depart="61.893" fromJunction="4way_10" toJunction="4way_28"/>
<trip id="131" depart="62.3691" fromJunction="4way_22" toJunction="3way_32"/>
<trip id="132" depart="62.845200000000006" fromJunction="4way_22" toJunction="3way_29"/>
<trip id="133" depart="63.3213" fromJunction="4way_15" toJunction="4way_22"/>
<trip id="134" depart="63.7974" fromJunction="4way_27" toJunction="4way_8"/>
<trip id="135" depart="64.2735" fromJunction="4way_27" toJunction="3way_33"/>
<trip id="136" depart="64.7496" fromJunction="3way_1" toJunction="4way_25"/>
<trip id="137" depart="65.2257" fromJunction="3way_11" toJunction="3way_31"/>
<trip id="138" depart="65.7018" fromJunction="3way_6" toJunction="4way_28"/>
<trip id="139" depart="66.17790000000001" fromJunction="4way_8" toJunction="3way_6"/>
<trip id="140" depart="66.654" fromJunction="3way_11" toJunction="3way_31"/>
<trip id="141" depart="67.1301" fromJunction="3way_23" toJunction="4way_21"/>
<trip id="142" depart="67.6062" fromJunction="3way_29" toJunction="4way_7"/>
<trip id="143" depart="68.0823" fromJunction="4way_27" toJunction="3way_4"/>
<trip id="144" depart="68.5584" fromJunction="4way_22" toJunction="4way_28"/>
<trip id="145" depart="69.03450000000001" fromJunction="4way_9" toJunction="4way_16"/>
<trip id="146" depart="69.5106" fromJunction="3way_3" toJunction="3way_32"/>
<trip id="147" depart="69.9867" fromJunction="3way_29" toJunction="3way_18"/>
<trip id="148" depart="70.4628" fromJunction="3way_2" toJunction="3way_11"/>
<trip id="149" depart="70.9389" fromJunction="3way_1" toJunction="4way_26"/>
<trip id="150" depart="71.415" fromJunction="3way_11" toJunction="4way_9"/>
<trip id="151" depart="71.89110000000001" fromJunction="3way_29" toJunction="4way_14"/>
<trip id="152" depart="72.3672" fromJunction="4way_13" toJunction="3way_18"/>
<trip id="153" depart="72.8433" fromJunction="4way_26" toJunction="4way_27"/>
<trip id="154" depart="73.3194" fromJunction="3way_11" toJunction="3way_34"/>
<trip id="155" depart="73.7955" fromJunction="3way_33" toJunction="3way_2"/>
<trip id="156" depart="74.2716" fromJunction="3way_12" toJunction="3way_34"/>
<trip id="157" depart="74.74770000000001" fromJunction="4way_20" toJunction="4way_14"/>
<trip id="158" depart="75.2238" fromJunction="3way_24" toJunction="3way_33"/>
<trip id="159" depart="75.6999" fromJunction="4way_15" toJunction="3way_17"/>
<trip id="160" depart="76.176" fromJunction="4way_20" toJunction="3way_2"/>
<trip id="161" depart="76.6521" fromJunction="3way_31" toJunction="3way_34"/>
<trip id="162" depart="77.1282" fromJunction="3way_34" toJunction="4way_19"/>
<trip id="163" depart="77.60430000000001" fromJunction="3way_23" toJunction="3way_31"/>
<trip id="164" depart="78.0804" fromJunction="3way_2" toJunction="3way_12"/>
<trip id="165" depart="78.5565" fromJunction="3way_3" toJunction="4way_15"/>
<trip id="166" depart="79.0326" fromJunction="3way_33" toJunction="4way_7"/>
<trip id="167" depart="79.5087" fromJunction="4way_22" toJunction="4way_19"/>
<trip id="168" depart="79.9848" fromJunction="3way_2" toJunction="4way_8"/>
<trip id="169" depart="80.46090000000001" fromJunction="4way_7" toJunction="3way_18"/>
<trip id="170" depart="80.937" fromJunction="4way_14" toJunction="4way_13"/>
<trip id="171" depart="81.4131" fromJunction="3way_11" toJunction="3way_34"/>
<trip id="172" depart="81.8892" fromJunction="4way_22" toJunction="3way_24"/>
<trip id="173" depart="82.3653" fromJunction="4way_10" toJunction="3way_17"/>
<trip id="174" depart="82.84140000000001" fromJunction="3way_12" toJunction="4way_13"/>
<trip id="175" depart="83.31750000000001" fromJunction="3way_12" toJunction="4way_10"/>
<trip id="176" depart="83.7936" fromJunction="3way_24" toJunction="4way_26"/>
<trip id="177" depart="84.2697" fromJunction="4way_20" toJunction="4way_10"/>
<trip id="178" depart="84.7458" fromJunction="3way_32" toJunction="4way_20"/>
<trip id="179" depart="85.2219" fromJunction="4way_8" toJunction="4way_9"/>
<trip id="180" depart="85.69800000000001" fromJunction="3way_17" toJunction="3way_29"/>
<trip id="181" depart="86.17410000000001" fromJunction="4way_22" toJunction="4way_15"/>
<trip id="182" depart="86.6502" fromJunction="4way_19" toJunction="3way_12"/>
<trip id="183" depart="87.1263" fromJunction="3way_12" toJunction="4way_27"/>
<trip id="184" depart="87.6024" fromJunction="4way_19" toJunction="4way_22"/>
<trip id="185" depart="88.0785" fromJunction="4way_16" toJunction="4way_21"/>
<trip id="186" depart="88.55460000000001" fromJunction="3way_17" toJunction="4way_21"/>
<trip id="187" depart="89.03070000000001" fromJunction="3way_24" toJunction="4way_8"/>
<trip id="188" depart="89.5068" fromJunction="3way_18" toJunction="3way_3"/>
<trip id="189" depart="89.9829" fromJunction="4way_27" toJunction="3way_34"/>
<trip id="190" depart="90.459" fromJunction="4way_22" toJunction="3way_2"/>
<trip id="191" depart="90.9351" fromJunction="3way_17" toJunction="3way_1"/>
<trip id="192" depart="91.41120000000001" fromJunction="4way_16" toJunction="3way_24"/>
<trip id="193" depart="91.88730000000001" fromJunction="4way_22" toJunction="3way_4"/>
<trip id="194" depart="92.3634" fromJunction="3way_12" toJunction="4way_27"/>
<trip id="195" depart="92.8395" fromJunction="3way_29" toJunction="3way_32"/>
<trip id="196" depart="93.3156" fromJunction="3way_2" toJunction="4way_25"/>
<trip id="197" depart="93.7917" fromJunction="3way_18" toJunction="3way_1"/>
<trip id="198" depart="94.26780000000001" fromJunction="3way_34" toJunction="3way_3"/>
<trip id="199" depart="94.74390000000001" fromJunction="3way_34" toJunction="3way_29"/>
<trip id="200" depart="95.22" fromJunction="3way_1" toJunction="3way_11"/>
<trip id="201" depart="95.6961" fromJunction="4way_25" toJunction="3way_4"/>
<trip id="202" depart="96.1722" fromJunction="3way_17" toJunction="3way_18"/>
<trip id="203" depart="96.6483" fromJunction="3way_6" toJunction="4way_8"/>
<trip id="204" depart="97.12440000000001" fromJunction="3way_3" toJunction="4way_28"/>
<trip id="205" depart="97.60050000000001" fromJunction="3way_33" toJunction="4way_15"/>
<trip id="206" depart="98.0766" fromJunction="4way_14" toJunction="3way_29"/>
<trip id="207" depart="98.5527" fromJunction="4way_14" toJunction="3way_29"/>
<trip id="208" depart="99.0288" fromJunction="3way_18" toJunction="4way_7"/>
<trip id="209" depart="99.5049" fromJunction="3way_33" toJunction="4way_13"/>
<trip id="210" depart="99.98100000000001" fromJunction="3way_18" toJunction="4way_20"/>
<trip id="211" depart="100.45710000000001" fromJunction="4way_21" toJunction="3way_31"/>
<trip id="212" depart="100.9332" fromJunction="3way_2" toJunction="4way_16"/>
<trip id="213" depart="101.4093" fromJunction="3way_31" toJunction="3way_29"/>
<trip id="214" depart="101.8854" fromJunction="4way_28" toJunction="4way_21"/>
<trip id="215" depart="102.3615" fromJunction="4way_10" toJunction="4way_28"/>
<trip id="216" depart="102.83760000000001" fromJunction="4way_28" toJunction="3way_33"/>
<trip id="217" depart="103.31370000000001" fromJunction="3way_4" toJunction="3way_29"/>
<trip id="218" depart="103.7898" fromJunction="3way_29" toJunction="4way_22"/>
<trip id="219" depart="104.2659" fromJunction="3way_2" toJunction="4way_20"/>
<trip id="220" depart="104.742" fromJunction="4way_10" toJunction="4way_26"/>
<trip id="221" depart="105.2181" fromJunction="3way_24" toJunction="3way_34"/>
<trip id="222" depart="105.69420000000001" fromJunction="4way_26" toJunction="3way_31"/>
<trip id="223" depart="106.17030000000001" fromJunction="3way_17" toJunction="3way_29"/>
<trip id="224" depart="106.6464" fromJunction="3way_33" toJunction="3way_12"/>
<trip id="225" depart="107.1225" fromJunction="3way_29" toJunction="4way_21"/>
<trip id="226" depart="107.5986" fromJunction="4way_22" toJunction="4way_7"/>
<trip id="227" depart="108.0747" fromJunction="4way_27" toJunction="4way_8"/>
<trip id="228" depart="108.55080000000001" fromJunction="4way_9" toJunction="4way_22"/>
<trip id="229" depart="109.02690000000001" fromJunction="4way_22" toJunction="4way_20"/>
<trip id="230" depart="109.503" fromJunction="3way_12" toJunction="4way_28"/>
<trip id="231" depart="109.9791" fromJunction="3way_33" toJunction="3way_3"/>
<trip id="232" depart="110.4552" fromJunction="3way_18" toJunction="3way_11"/>
<trip id="233" depart="110.93130000000001" fromJunction="4way_25" toJunction="3way_11"/>
<trip id="234" depart="111.40740000000001" fromJunction="4way_10" toJunction="3way_24"/>
<trip id="235" depart="111.88350000000001" fromJunction="4way_13" toJunction="4way_22"/>
<trip id="236" depart="112.3596" fromJunction="4way_19" toJunction="3way_34"/>
<trip id="237" depart="112.8357" fromJunction="3way_18" toJunction="4way_10"/>
<trip id="238" depart="113.3118" fromJunction="3way_34" toJunction="4way_13"/>
<trip id="239" depart="113.78790000000001" fromJunction="3way_24" toJunction="3way_12"/>
<trip id="240" depart="114.26400000000001" fromJunction="4way_7" toJunction="3way_29"/>
<trip id="241" depart="114.74010000000001" fromJunction="3way_31" toJunction="3way_33"/>
<trip id="242" depart="115.2162" fromJunction="4way_9" toJunction="4way_7"/>
<trip id="243" depart="115.6923" fromJunction="4way_16" toJunction="3way_32"/>
<trip id="244" depart="116.1684" fromJunction="3way_2" toJunction="4way_27"/>
<trip id="245" depart="116.64450000000001" fromJunction="3way_12" toJunction="3way_34"/>
<trip id="246" depart="117.12060000000001" fromJunction="3way_31" toJunction="3way_4"/>
<trip id="247" depart="117.59670000000001" fromJunction="4way_14" toJunction="4way_26"/>
<trip id="248" depart="118.0728" fromJunction="4way_20" toJunction="4way_25"/>
<trip id="249" depart="118.5489" fromJunction="3way_32" toJunction="3way_23"/>
<trip id="250" depart="119.025" fromJunction="4way_10" toJunction="4way_14"/>
<trip id="251" depart="119.50110000000001" fromJunction="3way_33" toJunction="4way_13"/>
<trip id="252" depart="119.97720000000001" fromJunction="4way_20" toJunction="3way_1"/>
<trip id="253" depart="120.45330000000001" fromJunction="3way_31" toJunction="3way_1"/>
<trip id="254" depart="120.9294" fromJunction="4way_16" toJunction="4way_7"/>
<trip id="255" depart="121.4055" fromJunction="3way_24" toJunction="3way_3"/>
<trip id="256" depart="121.8816" fromJunction="3way_32" toJunction="3way_1"/>
<trip id="257" depart="122.35770000000001" fromJunction="3way_34" toJunction="4way_25"/>
<trip id="258" depart="122.83380000000001" fromJunction="3way_4" toJunction="3way_23"/>
<trip id="259" depart="123.3099" fromJunction="4way_20" toJunction="4way_19"/>
<trip id="260" depart="123.786" fromJunction="4way_22" toJunction="4way_14"/>
<trip id="261" depart="124.2621" fromJunction="4way_8" toJunction="3way_1"/>
<trip id="262" depart="124.7382" fromJunction="4way_19" toJunction="4way_25"/>
<trip id="263" depart="125.21430000000001" fromJunction="3way_1" toJunction="4way_22"/>
<trip id="264" depart="125.69040000000001" fromJunction="4way_21" toJunction="4way_20"/>
<trip id="265" depart="126.1665" fromJunction="3way_32" toJunction="4way_7"/>
<trip id="266" depart="126.6426" fromJunction="3way_4" toJunction="4way_15"/>
<trip id="267" depart="127.1187" fromJunction="4way_7" toJunction="3way_12"/>
<trip id="268" depart="127.5948" fromJunction="3way_3" toJunction="4way_20"/>
<trip id="269" depart="128.0709" fromJunction="3way_18" toJunction="3way_29"/>
<trip id="270" depart="128.547" fromJunction="4way_10" toJunction="4way_25"/>
<trip id="271" depart="129.0231" fromJunction="3way_11" toJunction="4way_25"/>
<trip id="272" depart="129.4992" fromJunction="4way_27" toJunction="4way_28"/>
<trip id="273" depart="129.9753" fromJunction="4way_16" toJunction="4way_7"/>
<trip id="274" depart="130.4514" fromJunction="4way_16" toJunction="4way_13"/>
<trip id="275" depart="130.9275" fromJunction="4way_22" toJunction="4way_21"/>
<trip id="276" depart="131.4036" fromJunction="3way_2" toJunction="4way_16"/>
<trip id="277" depart="131.8797" fromJunction="3way_24" toJunction="3way_17"/>
<trip id="278" depart="132.35580000000002" fromJunction="3way_33" toJunction="4way_22"/>
<trip id="279" depart="132.83190000000002" fromJunction="4way_10" toJunction="3way_17"/>
<trip id="280" depart="133.308" fromJunction="4way_16" toJunction="3way_12"/>
<trip id="281" depart="133.7841" fromJunction="4way_14" toJunction="3way_17"/>
<trip id="282" depart="134.2602" fromJunction="3way_3" toJunction="3way_12"/>
<trip id="283" depart="134.7363" fromJunction="3way_29" toJunction="4way_20"/>
<trip id="284" depart="135.2124" fromJunction="4way_16" toJunction="3way_2"/>
<trip id="285" depart="135.6885" fromJunction="4way_10" toJunction="4way_26"/>
<trip id="286" depart="136.1646" fromJunction="4way_7" toJunction="4way_14"/>
<trip id="287" depart="136.6407" fromJunction="4way_28" toJunction="3way_33"/>
<trip id="288" depart="137.1168" fromJunction="3way_6" toJunction="3way_31"/>
<trip id="289" depart="137.59290000000001" fromJunction="4way_28" toJunction="3way_24"/>
<trip id="290" depart="138.06900000000002" fromJunction="3way_32" toJunction="3way_17"/>
<trip id="291" depart="138.54510000000002" fromJunction="3way_3" toJunction="4way_14"/>
<trip id="292" depart="139.0212" fromJunction="3way_6" toJunction="4way_25"/>
<trip id="293" depart="139.4973" fromJunction="3way_29" toJunction="3way_33"/>
<trip id="294" depart="139.9734" fromJunction="3way_31" toJunction="4way_7"/>
<trip id="295" depart="140.4495" fromJunction="3way_32" toJunction="3way_12"/>
<trip id="296" depart="140.9256" fromJunction="3way_11" toJunction="4way_28"/>
<trip id="297" depart="141.4017" fromJunction="3way_32" toJunction="3way_4"/>
<trip id="298" depart="141.8778" fromJunction="4way_14" toJunction="4way_19"/>
<trip id="299" depart="142.3539" fromJunction="4way_28" toJunction="3way_24"/>
<trip id="300" depart="142.83" fromJunction="4way_26" toJunction="3way_31"/>
<trip id="301" depart="143.30610000000001" fromJunction="4way_21" toJunction="4way_8"/>
<trip id="302" depart="143.78220000000002" fromJunction="4way_10" toJunction="4way_28"/>
<trip id="303" depart="144.25830000000002" fromJunction="4way_20" toJunction="4way_9"/>
<trip id="304" depart="144.7344" fromJunction="3way_11" toJunction="3way_32"/>
<trip id="305" depart="145.2105" fromJunction="3way_29" toJunction="3way_3"/>
<trip id="306" depart="145.6866" fromJunction="4way_7" toJunction="3way_18"/>
<trip id="307" depart="146.1627" fromJunction="4way_22" toJunction="4way_9"/>
<trip id="308" depart="146.6388" fromJunction="4way_26" toJunction="4way_19"/>
<trip id="309" depart="147.1149" fromJunction="4way_16" toJunction="4way_27"/>
<trip id="310" depart="147.591" fromJunction="3way_24" toJunction="4way_28"/>
<trip id="311" depart="148.0671" fromJunction="3way_11" toJunction="3way_24"/>
<trip id="312" depart="148.5432" fromJunction="3way_4" toJunction="4way_27"/>
<trip id="313" depart="149.01930000000002" fromJunction="4way_19" toJunction="3way_6"/>
<trip id="314" depart="149.49540000000002" fromJunction="3way_17" toJunction="3way_29"/>
<trip id="315" depart="149.97150000000002" fromJunction="3way_2" toJunction="4way_27"/>
<trip id="316" depart="150.4476" fromJunction="3way_4" toJunction="3way_6"/>
<trip id="317" depart="150.9237" fromJunction="4way_28" toJunction="3way_12"/>
<trip id="318" depart="151.3998" fromJunction="4way_27" toJunction="3way_18"/>
<trip id="319" depart="151.8759" fromJunction="3way_34" toJunction="3way_4"/>
<trip id="320" depart="152.352" fromJunction="3way_31" toJunction="4way_14"/>
<trip id="321" depart="152.8281" fromJunction="4way_8" toJunction="4way_20"/>
<trip id="322" depart="153.3042" fromJunction="3way_18" toJunction="3way_24"/>
<trip id="323" depart="153.7803" fromJunction="3way_3" toJunction="4way_25"/>
<trip id="324" depart="154.2564" fromJunction="4way_8" toJunction="4way_21"/>
<trip id="325" depart="154.73250000000002" fromJunction="4way_13" toJunction="4way_26"/>
<trip id="326" depart="155.20860000000002" fromJunction="3way_24" toJunction="3way_4"/>
<trip id="327" depart="155.68470000000002" fromJunction="3way_32" toJunction="3way_24"/>
<trip id="328" depart="156.1608" fromJunction="4way_26" toJunction="3way_1"/>
<trip id="329" depart="156.6369" fromJunction="4way_25" toJunction="3way_4"/>
<trip id="330" depart="157.113" fromJunction="4way_8" toJunction="4way_20"/>
<trip id="331" depart="157.5891" fromJunction="3way_4" toJunction="4way_22"/>
<trip id="332" depart="158.0652" fromJunction="3way_1" toJunction="4way_27"/>
<trip id="333" depart="158.5413" fromJunction="3way_24" toJunction="4way_13"/>
<trip id="334" depart="159.0174" fromJunction="3way_31" toJunction="4way_7"/>
<trip id="335" depart="159.4935" fromJunction="3way_1" toJunction="3way_23"/>
<trip id="336" depart="159.9696" fromJunction="4way_21" toJunction="4way_7"/>
<trip id="337" depart="160.44570000000002" fromJunction="3way_29" toJunction="3way_31"/>
<trip id="338" depart="160.92180000000002" fromJunction="3way_4" toJunction="3way_29"/>
<trip id="339" depart="161.39790000000002" fromJunction="3way_3" toJunction="3way_34"/>
<trip id="340" depart="161.874" fromJunction="4way_27" toJunction="3way_3"/>
<trip id="341" depart="162.3501" fromJunction="4way_13" toJunction="3way_17"/>
<trip id="342" depart="162.8262" fromJunction="3way_12" toJunction="4way_9"/>
<trip id="343" depart="163.3023" fromJunction="3way_23" toJunction="3way_11"/>
<trip id="344" depart="163.7784" fromJunction="4way_7" toJunction="3way_18"/>
<trip id="345" depart="164.2545" fromJunction="4way_15" toJunction="3way_31"/>
<trip id="346" depart="164.7306" fromJunction="4way_16" toJunction="4way_9"/>
<trip id="347" depart="165.2067" fromJunction="4way_10" toJunction="3way_1"/>
<trip id="348" depart="165.68280000000001" fromJunction="4way_10" toJunction="3way_24"/>
<trip id="349" depart="166.15890000000002" fromJunction="4way_28" toJunction="4way_20"/>
<trip id="350" depart="166.63500000000002" fromJunction="3way_31" toJunction="4way_9"/>
<trip id="351" depart="167.11110000000002" fromJunction="3way_24" toJunction="4way_7"/>
<trip id="352" depart="167.5872" fromJunction="3way_34" toJunction="3way_31"/>
<trip id="353" depart="168.0633" fromJunction="4way_14" toJunction="3way_6"/>
<trip id="354" depart="168.5394" fromJunction="4way_7" toJunction="3way_34"/>
<trip id="355" depart="169.0155" fromJunction="3way_17" toJunction="3way_4"/>
<trip id="356" depart="169.4916" fromJunction="4way_28" toJunction="3way_2"/>
<trip id="357" depart="169.9677" fromJunction="3way_17" toJunction="3way_1"/>
<trip id="358" depart="170.4438" fromJunction="3way_3" toJunction="4way_25"/>
<trip id="359" depart="170.9199" fromJunction="4way_26" toJunction="4way_10"/>
<trip id="360" depart="171.39600000000002" fromJunction="4way_7" toJunction="4way_22"/>
<trip id="361" depart="171.87210000000002" fromJunction="4way_13" toJunction="3way_33"/>
<trip id="362" depart="172.34820000000002" fromJunction="4way_7" toJunction="4way_16"/>
<trip id="363" depart="172.82430000000002" fromJunction="4way_10" toJunction="3way_34"/>
<trip id="364" depart="173.3004" fromJunction="3way_1" toJunction="3way_31"/>
<trip id="365" depart="173.7765" fromJunction="3way_32" toJunction="3way_29"/>
<trip id="366" depart="174.2526" fromJunction="3way_12" toJunction="4way_27"/>
<trip id="367" depart="174.7287" fromJunction="3way_32" toJunction="3way_12"/>
<trip id="368" depart="175.2048" fromJunction="4way_22" toJunction="4way_10"/>
<trip id="369" depart="175.6809" fromJunction="3way_24" toJunction="4way_28"/>
<trip id="370" depart="176.157" fromJunction="4way_15" toJunction="4way_22"/>