<routes xmlns:xsi="http://www.w3.org/2001/XMLSchema-instance" xsi:noNamespaceSchemaLocation="http://sumo.dlr.de/xsd/routes_file.xsd">
<trip id="0" depart="0.0" fromJunction="4way_24" toJunction="4way_36"/>
<trip id="1" depart="0.9523" fromJunction="4way_36" toJunction="4way_23"/>
<trip id="2" depart="1.9046" fromJunction="4way_37" toJunction="3way_7"/>
<trip id="3" depart="2.8569" fromJunction="4way_12" toJunction="3way_7"/>
<trip id="4" depart="3.8092" fromJunction="3way_21" toJunction="4way_33"/>
<trip id="5" depart="4.7615" fromJunction="4way_29" toJunction="4way_11"/>
<trip id="6" depart="5.7138" fromJunction="4way_19" toJunction="4way_9"/>
<trip id="7" depart="6.6661" fromJunction="4way_25" toJunction="3way_1"/>
<trip id="8" depart="7.6184" fromJunction="4way_39" toJunction="4way_11"/>
<trip id="9" depart="8.5707" fromJunction="4way_11" toJunction="4way_40"/>
<trip id="10" depart="9.523" fromJunction="4way_11" toJunction="4way_8"/>
<trip id="11" depart="10.4753" fromJunction="4way_30" toJunction="3way_13"/>
<trip id="12" depart="11.4276" fromJunction="4way_26" toJunction="3way_20"/>
<trip id="13" depart="12.379900000000001" fromJunction="3way_14" toJunction="4way_29"/>
<trip id="14" depart="13.3322" fromJunction="4way_38" toJunction="3way_46"/>
<trip id="15" depart="14.284500000000001" fromJunction="4way_9" toJunction="4way_8"/>
<trip id="16" depart="15.2368" fromJunction="4way_23" toJunction="3way_1"/>
<trip id="17" depart="16.1891" fromJunction="4way_10" toJunction="4way_26"/>
<trip id="18" depart="17.1414" fromJunction="3way_7" toJunction="3way_28"/>
<trip id="19" depart="18.093700000000002" fromJunction="3way_3" toJunction="4way_17"/>
<trip id="20" depart="19.046" fromJunction="3way_13" toJunction="3way_41"/>
<trip id="21" depart="19.9983" fromJunction="3way_28" toJunction="3way_43"/>
<trip id="22" depart="20.9506" fromJunction="3way_7" toJunction="4way_9"/>
<trip id="23" depart="21.902900000000002" fromJunction="3way_5" toJunction="4way_40"/>
<trip id="24" depart="22.8552" fromJunction="3way_27" toJunction="3way_41"/>
<trip id="25" depart="23.8075" fromJunction="3way_46" toJunction="4way_37"/>
<trip id="26" depart="24.759800000000002" fromJunction="3way_47" toJunction="4way_8"/>
<trip id="27" depart="25.7121" fromJunction="3way_5" toJunction="3way_27"/>
<trip id="28" depart="26.6644" fromJunction="3way_20" toJunction="4way_37"/>
<trip id="29" depart="27.6167" fromJunction="3way_28" toJunction="3way_34"/>
<trip id="30" depart="28.569000000000003" fromJunction="3way_5" toJunction="4way_18"/>
<trip id="31" depart="29.5213" fromJunction="3way_5" toJunction="4way_25"/>
<trip id="32" depart="30.4736" fromJunction="4way_15" toJunction="4way_33"/>
<trip id="33" depart="31.425900000000002" fromJunction="4way_23" toJunction="4way_33"/>
<trip id="34" depart="32.3782" fromJunction="3way_2" toJunction="4way_31"/>
<trip id="35" depart="33.3305" fromJunction="3way_13" toJunction="3way_45"/>
<trip id="36" depart="34.2828" fromJunction="3way_13" toJunction="3way_44"/>
<trip id="37" depart="35.2351" fromJunction="3way_14" toJunction="3way_43"/>
<trip id="38" depart="36.187400000000004" fromJunction="4way_17" toJunction="3way_3"/>
<trip id="39" depart="37.139700000000005" fromJunction="3way_46" toJunction="4way_9"/>
<trip id="40" depart="38.092" fromJunction="3way_5" toJunction="4way_29"/>
<trip id="41" depart="39.0443" fromJunction="4way_19" toJunction="4way_9"/>
<trip id="42" depart="39.9966" fromJunction="4way_10" toJunction="3way_43"/>
<trip id="43" depart="40.9489" fromJunction="4way_24" toJunction="3way_13"/>
<trip id="44" depart="41.9012" fromJunction="3way_34" toJunction="3way_44"/>
<trip id="45" depart="42.853500000000004" fromJunction="3way_1" toJunction="4way_16"/>
<trip id="46" depart="43.805800000000005" fromJunction="3way_1" toJunction="4way_25"/>
<trip id="47" depart="44.7581" fromJunction="3way_45" toJunction="4way_10"/>
<trip id="48" depart="45.7104" fromJunction="4way_33" toJunction="4way_31"/>
<trip id="49" depart="46.6627" fromJunction="4way_9" toJunction="3way_46"/>
<trip id="50" depart="47.615" fromJunction="4way_9" toJunction="4way_16"/>
<trip id="51" depart="48.5673" fromJunction="4way_26" toJunction="3way_47"/>
<trip id="52" depart="49.519600000000004" fromJunction="4way_32" toJunction="4way_8"/>
<trip id="53" depart="50.471900000000005" fromJunction="3way_44" toJunction="4way_17"/>
<trip id="54" depart="51.4242" fromJunction="3way_21" toJunction="4way_18"/>
<trip id="55" depart="52.3765" fromJunction="4way_16" toJunction="4way_39"/>
<trip id="56" depart="53.3288" fromJunction="4way_17" toJunction="4way_39"/>
<trip id="57" depart="54.2811" fromJunction="4way_22" toJunction="4way_24"/>
<trip id="58" depart="55.2334" fromJunction="4way_30" toJunction="4way_33"/>
<trip id="59" depart="56.185700000000004" fromJunction="4way_23" toJunction="3way_7"/>
<trip id="60" depart="57.138000000000005" fromJunction="3way_44" toJunction="3way_1"/>
<trip id="61" depart="58.0903" fromJunction="3way_44" toJunction="4way_37"/>
<trip id="62" depart="59.0426" fromJunction="3way_7" toJunction="4way_23"/>
<trip id="63" depart="59.9949" fromJunction="3way_44" toJunction="3way_20"/>
<trip id="64" depart="60.9472" fromJunction="4way_16" toJunction="4way_9"/>
<trip id="65" depart="61.8995" fromJunction="4way_37" toJunction="4way_9"/>
<trip id="66" depart="62.851800000000004" fromJunction="3way_7" toJunction="4way_37"/>
<trip id="67" depart="63.804100000000005" fromJunction="3way_28" toJunction="4way_12"/>
<trip id="68" depart="64.7564" fromJunction="4way_12" toJunction="3way_7"/>
<trip id="69" depart="65.70870000000001" fromJunction="4way_17" toJunction="4way_18"/>
<trip id="70" depart="66.661" fromJunction="4way_19" toJunction="3way_5"/>
<trip id="71" depart="67.61330000000001" fromJunction="4way_40" toJunction="4way_24"/>
<trip id="72" depart="68.5656" fromJunction="4way_39" toJunction="3way_20"/>
<trip id="73" depart="69.5179" fromJunction="4way_23" toJunction="3way_27"/>
<trip id="74" depart="70.4702" fromJunction="4way_32" toJunction="3way_13"/>
<trip id="75" depart="71.4225" fromJunction="4way_9" toJunction="4way_18"/>
<trip id="76" depart="72.37480000000001" fromJunction="3way_4" toJunction="3way_14"/>
<trip id="77" depart="73.3271" fromJunction="4way_8" toJunction="4way_17"/>
<trip id="78" depart="74.27940000000001" fromJunction="4way_32" toJunction="4way_24"/>
<trip id="79" depart="75.2317" fromJunction="4way_32" toJunction="4way_33"/>
<trip id="80" depart="76.184" fromJunction="3way_28" toJunction="3way_1"/>
<trip id="81" depart="77.1363" fromJunction="3way_27" toJunction="4way_24"/>
<trip id="82" depart="78.0886" fromJunction="3way_3" toJunction="4way_29"/>
<trip id="83" depart="79.04090000000001" fromJunction="3way_1" toJunction="3way_34"/>
<trip id="84" depart="79.9932" fromJunction="3way_47" toJunction="4way_11"/>
<trip id="85" depart="80.94550000000001" fromJunction="4way_19" toJunction="3way_35"/>
<trip id="86" depart="81.8978" fromJunction="3way_2" toJunction="4way_17"/>
<trip id="87" depart="82.8501" fromJunction="4way_23" toJunction="3way_27"/>
<trip id="88" depart="83.8024" fromJunction="3way_47" toJunction="4way_9"/>
<trip id="89" depart="84.7547" fromJunction="4way_23" toJunction="4way_26"/>
<trip id="90" depart="85.70700000000001" fromJunction="4way_16" toJunction="4way_36"/>
<trip id="91" depart="86.6593" fromJunction="3way_43" toJunction="4way_24"/>
<trip id="92" depart="87.61160000000001" fromJunction="3way_41" toJunction="3way_21"/>
<trip id="93" depart="88.5639" fromJunction="4way_26" toJunction="3way_34"/>
<trip id="94" depart="89.5162" fromJunction="4way_22" toJunction="4way_31"/>
<trip id="95" depart="90.4685" fromJunction="3way_46" toJunction="3way_47"/>
<trip id="96" depart="91.4208" fromJunction="3way_7" toJunction="3way_3"/>
<trip id="97" depart="92.37310000000001" fromJunction="4way_17" toJunction="3way_43"/>
<trip id="98" depart="93.3254" fromJunction="3way_34" toJunction="3way_28"/>
<trip id="99" depart="94.27770000000001" fromJunction="3way_4" toJunction="3way_2"/>
<trip id="100" depart="95.23" fromJunction="4way_8" toJunction="4way_10"/>
<trip id="101" depart="96.1823" fromJunction="4way_12" toJunction="4way_36"/>
<trip id="102" depart="97.1346" fromJunction="3way_41" toJunction="4way_40"/>
<trip id="103" depart="98.0869" fromJunction="3way_46" toJunction="4way_37"/>
<trip id="104" depart="99.03920000000001" fromJunction="4way_38" toJunction="3way_1"/>
<trip id="105" depart="99.9915" fromJunction="3way_21" toJunction="3way_43"/>
<trip id="106" depart="100.94380000000001" fromJunction="4way_25" toJunction="4way_16"/>
<trip id="107" depart="101.8961" fromJunction="4way_39" toJunction="4way_30"/>
<trip id="108" depart="102.8484" fromJunction="4way_11" toJunction="3way_45"/>
<trip id="109" depart="103.8007" fromJunction="4way_26" toJunction="3way_34"/>
<trip id="110" depart="104.753" fromJunction="3way_41" toJunction="4way_10"/>
<trip id="111" depart="105.70530000000001" fromJunction="4way_24" toJunction="4way_26"/>
<trip id="112" depart="106.6576" fromJunction="3way_41" toJunction="3way_46"/>
<trip id="113" depart="107.60990000000001" fromJunction="3way_2" toJunction="4way_29"/>
<trip id="114" depart="108.5622" fromJunction="3way_7" toJunction="3way_41"/>
<trip id="115" depart="109.5145" fromJunction="4way_8" toJunction="3way_28"/>
<trip id="116" depart="110.4668" fromJunction="4way_16" toJunction="3way_45"/>
<trip id="117" depart="111.4191" fromJunction="3way_13" toJunction="4way_32"/>
<trip id="118" depart="112.37140000000001" fromJunction="3way_13" toJunction="4way_29"/>
<trip id="119" depart="113.3237" fromJunction="3way_21" toJunction="4way_24"/>
<trip id="120" depart="114.27600000000001" fromJunction="3way_34" toJunction="4way_9"/>
<trip id="121" depart="115.2283" fromJunction="4way_15" toJunction="3way_20"/>
<trip id="122" depart="116.1806" fromJunction="4way_26" toJunction="3way_28"/>
<trip id="123" depart="117.1329" fromJunction="4way_31" toJunction="4way_38"/>
<trip id="124" depart="118.0852" fromJunction="3way_4" toJunction="4way_12"/>
<trip id="125" depart="119.03750000000001" fromJunction="4way_16" toJunction="4way_36"/>
<trip id="126" depart="119.9898" fromJunction="3way_44" toJunction="4way_33"/>
<trip id="127" depart="120.94210000000001" fromJunction="3way_5" toJunction="3way_47"/>
<trip id="128" depart="121.8944" fromJunction="4way_19" toJunction="3way_1"/>
<trip id="129" depart="122.8467" fromJunction="4way_11" toJunction="4way_10"/>
<trip id="130" depart="123.799" fromJunction="4way_16" toJunction="3way_45"/>
<trip id="131" depart="124.7513" fromJunction="4way_15" toJunction="3way_3"/>
<trip id="132" depart="125.70360000000001" fromJunction="4way_39" toJunction="4way_33"/>
<trip id="133" depart="126.6559" fromJunction="4way_33" toJunction="3way_35"/>
<trip id="134" depart="127.60820000000001" fromJunction="4way_26" toJunction="3way_47"/>
<trip id="135" depart="128.56050000000002" fromJunction="4way_11" toJunction="4way_26"/>
<trip id="136" depart="129.5128" fromJunction="4way_39" toJunction="4way_30"/>
<trip id="137" depart="130.4651" fromJunction="4way_32" toJunction="3way_44"/>
<trip id="138" depart="131.41740000000001" fromJunction="3way_1" toJunction="4way_23"/>
<trip id="139" depart="132.3697" fromJunction="3way_20" toJunction="3way_35"/>
<trip id="140" depart="133.322" fromJunction="4way_15" toJunction="4way_40"/>
<trip id="141" depart="134.2743" fromJunction="4way_30" toJunction="4way_22"/>
<trip id="142" depart="135.22660000000002" fromJunction="3way_20" toJunction="3way_28"/>
<trip id="143" depart="136.1789" fromJunction="3way_34" toJunction="4way_18"/>
<trip id="144" depart="137.1312" fromJunction="3way_47" toJunction="4way_29"/>
<trip id="145" depart="138.08350000000002" fromJunction="4way_32" toJunction="3way_5"/>
<trip id="146" depart="139.0358" fromJunction="4way_38" toJunction="4way_12"/>
<trip id="147" depart="139.9881" fromJunction="3way_4" toJunction="3way_43"/>
<trip id="148" depart="140.9404" fromJunction="3way_47" toJunction="3way_14"/>
<trip id="149" depart="141.89270000000002" fromJunction="3way_3" toJunction="3way_13"/>
<trip id="150" depart="142.845" fromJunction="3way_1" toJunction="4way_24"/>
<trip id="151" depart="143.7973" fromJunction="3way_20" toJunction="4way_38"/>
<trip id="152" depart="144.74960000000002" fromJunction="3way_5" toJunction="3way_4"/>
<trip id="153" depart="145.7019" fromJunction="3way_46" toJunction="4way_10"/>
<trip id="154" depart="146.6542" fromJunction="4way_9" toJunction="3way_14"/>
<trip id="155" depart="147.6065" fromJunction="4way_24" toJunction="4way_32"/>
<trip id="156" depart="148.55880000000002" fromJunction="3way_13" toJunction="3way_45"/>
<trip id="157" depart="149.5111" fromJunction="3way_44" toJunction="3way_3"/>
<trip id="158" depart="150.4634" fromJunction="4way_8" toJunction="3way_46"/>
<trip id="159" depart="151.41570000000002" fromJunction="4way_17" toJunction="4way_10"/>
<trip id="160" depart="152.368" fromJunction="3way_21" toJunction="3way_45"/>
<trip id="161" depart="153.3203" fromJunction="4way_11" toJunction="3way_34"/>
<trip id="162" depart="154.2726" fromJunction="4way_17" toJunction="3way_3"/>
<trip id="163" depart="155.22490000000002" fromJunction="4way_38" toJunction="4way_11"/>
<trip id="164" depart="156.1772" fromJunction="3way_28" toJunction="3way_46"/>
<trip id="165" depart="157.1295" fromJunction="3way_45" toJunction="4way_16"/>
<trip id="166" depart="158.08180000000002" fromJunction="3way_34" toJunction="3way_28"/>
<trip id="167" depart="159.0341" fromJunction="3way_3" toJunction="4way_8"/>
<trip id="168" depart="159.9864" fromJunction="3way_4" toJunction="4way_11"/>
<trip id="169" depart="160.9387" fromJunction="3way_44" toJunction="4way_29"/>
<trip id="170" depart="161.89100000000002" fromJunction="4way_33" toJunction="4way_9"/>
<trip id="171" depart="162.8433" fromJunction="3way_2" toJunction="4way_37"/>
<trip id="172" depart="163.7956" fromJunction="4way_22" toJunction="3way_7"/>
<trip id="173" depart="164.74790000000002" fromJunction="4way_10" toJunction="4way_36"/>
<trip id="174" depart="165.7002" fromJunction="3way_13" toJunction="3way_45"/>
<trip id="175" depart="166.6525" fromJunction="4way_33" toJunction="3way_21"/>
<trip id="176" depart="167.6048" fromJunction="4way_12" toJunction="3way_34"/>
<trip id="177" depart="168.55710000000002" fromJunction="4way_8" toJunction="4way_36"/>
<trip id="178" depart="169.5094" fromJunction="4way_8" toJunction="4way_39"/>
<trip id="179" depart="170.4617" fromJunction="3way_21" toJunction="4way_24"/>
<trip id="180" depart="171.41400000000002" fromJunction="4way_17" toJunction="4way_12"/>
<trip id="181" depart="172.3663" fromJunction="3way_43" toJunction="4way_17"/>
<trip id="182" depart="173.3186" fromJunction="4way_30" toJunction="4way_38"/>
<trip id="183" depart="174.2709" fromJunction="3way_27" toJunction="3way_47"/>
<trip id="184" depart="175.22320000000002" fromJunction="4way_33" toJunction="4way_11"/>
<trip id="185" depart="176.1755" fromJunction="4way_16" toJunction="4way_8"/>
<trip id="186" depart="177.1278" fromJunction="4way_8" toJunction="4way_32"/>
<trip id="187" depart="178.08010000000002" fromJunction="4way_9" toJunction="4way_26"/>
<trip id="188" depart="179.0324" fromJunction="4way_12" toJunction="4way_18"/>
<trip id="189" depart="179.9847" fromJunction="3way_27" toJunction="4way_18"/>
<trip id="190" depart="180.937" fromJunction="3way_21" toJunction="4way_30"/>
<trip id="191" depart="181.88930000000002" fromJunction="3way_7" toJunction="3way_3"/>
<trip id="192" depart="182.8416" fromJunction="4way_32" toJunction="3way_46"/>
<trip id="193" depart="183.7939" fromJunction="4way_33" toJunction="3way_2"/>
<trip id="194" depart="184.74620000000002" fromJunction="3way_28" toJunction="3way_35"/>
<trip id="195" depart="185.6985" fromJunction="3way_34" toJunction="3way_1"/>
<trip id="196" depart="186.6508" fromJunction="4way_19" toJunction="3way_14"/>
<trip id="197" depart="187.6031" fromJunction="4way_26" toJunction="3way_5"/>
<trip id="198" depart="188.55540000000002" fromJunction="4way_8" toJunction="4way_39"/>
<trip id="199" depart="189.5077" fromJunction="3way_47" toJunction="3way_43"/>
<trip id="200" depart="190.46" fromJunction="3way_2" toJunction="4way_23"/>
<trip id="201" depart="191.41230000000002" fromJunction="3way_7" toJunction="3way_1"/>
<trip id="202" depart="192.3646" fromJunction="3way_46" toJunction="3way_4"/>
<trip id="203" depart="193.3169" fromJunction="3way_46" toJunction="3way_41"/>
<trip id="204" depart="194.2692" fromJunction="3way_1" toJunction="3way_13"/>
<trip id="205" depart="195.22150000000002" fromJunction="4way_23" toJunction="3way_13"/>
<trip id="206" depart="196.1738" fromJunction="4way_40" toJunction="4way_33"/>
<trip id="207" depart="197.1261" fromJunction="3way_27" toJunction="3way_14"/>
<trip id="208" depart="198.07840000000002" fromJunction="4way_22" toJunction="4way_30"/>
<trip id="209" depart="199.0307" fromJunction="3way_3" toJunction="4way_40"/>
<trip id="210" depart="199.983" fromJunction="3way_45" toJunction="4way_11"/>
<trip id="211" depart="200.9353" fromJunction="4way_37" toJunction="3way_47"/>
<trip id="212" depart="201.88760000000002" fromJunction="4way_37" toJunction="3way_46"/>
<trip id="213" depart="202.8399" fromJunction="3way_7" toJunction="4way_29"/>
<trip id="214" depart="203.7922" fromJunction="3way_45" toJunction="4way_36"/>
<trip id="215" depart="204.74450000000002" fromJunction="3way_14" toJunction="4way_17"/>
<trip id="216" depart="205.6968" fromJunction="4way_25" toJunction="3way_28"/>
<trip id="217" depart="206.6491" fromJunction="3way_3" toJunction="4way_19"/>
<trip id="218" depart="207.6014" fromJunction="3way_35" toJunction="3way_47"/>
<trip id="219" depart="208.55370000000002" fromJunction="4way_40" toJunction="4way_18"/>
<trip id="220" depart="209.506" fromJunction="4way_12" toJunction="4way_33"/>
<trip id="221" depart="210.4583" fromJunction="4way_40" toJunction="3way_44"/>
<trip id="222" depart="211.41060000000002" fromJunction="3way_5" toJunction="3way_46"/>
<trip id="223" depart="212.3629" fromJunction="3way_47" toJunction="4way_26"/>
<trip id="224" depart="213.3152" fromJunction="3way_3" toJunction="4way_17"/>
<trip id="225" depart="214.2675" fromJunction="4way_39" toJunction="4way_24"/>
<trip id="226" depart="215.21980000000002" fromJunction="3way_21" toJunction="3way_45"/>
<trip id="227" depart="216.1721" fromJunction="4way_31" toJunction="3way_28"/>
<trip id="228" depart="217.1244" fromJunction="3way_27" toJunction="3way_47"/>
<trip id="229" depart="218.07670000000002" fromJunction="3way_44" toJunction="4way_8"/>
<trip id="230" depart="219.029" fromJunction="3way_47" toJunction="4way_25"/>
<trip id="231" depart="219.9813" fromJunction="4way_26" toJunction="4way_22"/>
<trip id="232" depart="220.9336" fromJunction="4way_39" toJunction="4way_30"/>
<trip id="233" depart="221.88590000000002" fromJunction="4way_31" toJunction="4way_26"/>
<trip id="234" depart="222.8382" fromJunction="4way_33" toJunction="4way_17"/>
<trip id="235" depart="223.7905" fromJunction="4way_8" toJunction="4way_40"/>
<trip id="236" depart="224.74280000000002" fromJunction="3way_44" toJunction="3way_4"/>
<trip id="237" depart="225.6951" fromJunction="3way_14" toJunction="3way_20"/>
<trip id="238" depart="226.6474" fromJunction="4way_23" toJunction="3way_13"/>
<trip id="239" depart="227.5997" fromJunction="4way_12" toJunction="3way_21"/>
<trip id="240" depart="228.55200000000002" fromJunction="4way_36" toJunction="4way_33"/>
<trip id="241" depart="229.5043" fromJunction="4way_16" toJunction="3way_45"/>
<trip id="242" depart="230.4566" fromJunction="3way_14" toJunction="4way_12"/>
<trip id="243" depart="231.40890000000002" fromJunction="3way_45" toJunction="4way_36"/>
<trip id="244" depart="232.3612" fromJunction="3way_14" toJunction="4way_8"/>
<trip id="245" depart="233.3135" fromJunction="4way_22" toJunction="3way_46"/>
<trip id="246" depart="234.2658" fromJunction="3way_28" toJunction="3way_44"/>
<trip id="247" depart="235.21810000000002" fromJunction="4way_31" toJunction="4way_29"/>
<trip id="248" depart="236.1704" fromJunction="4way_19" toJunction="3way_35"/>
<trip id="249" depart="237.1227" fromJunction="3way_3" toJunction="4way_32"/>
<trip id="250" depart="238.07500000000002" fromJunction="4way_8" toJunction="3way_46"/>
<trip id="251" depart="239.0273" fromJunction="3way_35" toJunction="3way_5"/>
<trip id="252" depart="239.9796" fromJunction="4way_10" toJunction="4way_31"/>
<trip id="253" depart="240.9319" fromJunction="4way_17" toJunction="4way_30"/>
<trip id="254" depart="241.88420000000002" fromJunction="3way_35" toJunction="3way_41"/>
<trip id="255" depart="242.8365" fromJunction="4way_39" toJunction="4way_10"/>
<trip id="256" depart="243.7888" fromJunction="3way_45" toJunction="4way_36"/>
<trip id="257" depart="244.74110000000002" fromJunction="4way_17" toJunction="3way_2"/>
<trip id="258" depart="245.6934" fromJunction="3way_28" toJunction="3way_1"/>
<trip id="259" depart="246.6457" fromJunction="4way_19" toJunction="4way_29"/>
<trip id="260" depart="247.598" fromJunction="3way_14" toJunction="3way_5"/>
<trip id="261" depart="248.55030000000002" fromJunction="3way_35" toJunction="3way_2"/>
<trip id="262" depart="249.5026" fromJunction="3way_45" toJunction="4way_30"/>
<trip id="263" depart="250.4549" fromJunction="3way_13" toJunction="3way_41"/>
<trip id="264" depart="251.40720000000002" fromJunction="4way_17" toJunction="4way_9"/>
<trip id="265" depart="252.3595" fromJunction="4way_26" toJunction="4way_10"/>
<trip id="266" depart="253.3118" fromJunction="4way_37" toJunction="3way_1"/>
<trip id="267" depart="254.2641" fromJunction="4way_16" toJunction="4way_23"/>
<trip id="268" depart="255.21640000000002" fromJunction="3way_1" toJunction="4way_33"/>
<trip id="269" depart="256.1687" fromJunction="4way_18" toJunction="4way_17"/>
<trip id="270" depart="257.12100000000004" fromJunction="3way_35" toJunction="4way_22"/>
<trip id="271" depart="258.0733" fromJunction="3way_5" toJunction="4way_11"/>
<trip id="272" depart="259.0256" fromJunction="4way_29" toJunction="3way_7"/>
<trip id="273" depart="259.97790000000003" fromJunction="3way_5" toJunction="4way_17"/>
<trip id="274" depart="260.9302" fromJunction="3way_14" toJunction="3way_47"/>
<trip id="275" depart="261.8825" fromJunction="4way_39" toJunction="4way_30"/>
<trip id="276" depart="262.83480000000003" fromJunction="3way_20" toJunction="4way_23"/>
<trip id="277" depart="263.7871" fromJunction="4way_39" toJunction="4way_40"/>
<trip id="278" depart="264.7394" fromJunction="4way_19" toJunction="4way_22"/>
<trip id="279" depart="265.6917" fromJunction="4way_19" toJunction="4way_36"/>
<trip id="280" depart="266.644" fromJunction="4way_33" toJunction="4way_25"/>
<trip id="281" depart="267.5963" fromJunction="3way_2" toJunction="4way_19"/>
<trip id="282" depart="268.5486" fromJunction="3way_21" toJunction="3way_27"/>
<trip id="283" depart="269.5009" fromJunction="3way_44" toJunction="4way_26"/>
<trip id="284" depart="270.45320000000004" fromJunction="4way_39" toJunction="3way_27"/>
<trip id="285" depart="271.4055" fromJunction="4way_12" toJunction="4way_8"/>
<trip id="286" depart="272.3578" fromJunction="4way_37" toJunction="3way_27"/>
<trip id="287" depart="273.31010000000003" fromJunction="3way_4" toJunction="3way_7"/>
<trip id="288" depart="274.2624" fromJunction="3way_46" toJunction="4way_17"/>
<trip id="289" depart="275.2147" fromJunction="3way_3" toJunction="3way_2"/>
<trip id="290" depart="276.16700000000003" fromJunction="4way_12" toJunction="3way_3"/>
<trip id="291" depart="277.1193" fromJunction="4way_12" toJunction="4way_31"/>
<trip id="292" depart="278.0716" fromJunction="4way_29" toJunction="4way_10"/>
<trip id="293" depart="279.0239" fromJunction="4way_40" toJunction="3way_44"/>
<trip id="294" depart="279.9762" fromJunction="4way_15" toJunction="3way_28"/>
<trip id="295" depart="280.9285" fromJunction="4way_40" toJunction="3way_21"/>
<trip id="296" depart="281.8808" fromJunction="3way_43" toJunction="3way_27"/>
<trip id="297" depart="282.8331" fromJunction="3way_3" toJunction="4way_10"/>
<trip id="298" depart="283.78540000000004" fromJunction="4way_15" toJunction="4way_23"/>
<trip id="299" depart="284.7377" fromJunction="3way_47" toJunction="3way_45"/>
<trip id="300" depart="285.69" fromJunction="3way_28" toJunction="4way_29"/>
<trip id="301" depart="286.64230000000003" fromJunction="3way_35" toJunction="4way_8"/>
<trip id="302" depart="287.5946" fromJunction="3way_20" toJunction="4way_33"/>
<trip id="303" depart="288.5469" fromJunction="3way_35" toJunction="3way_5"/>
<trip id="304" depart="289.49920000000003" fromJunction="4way_37" toJunction="4way_16"/>
<trip id="305" depart="290.4515" fromJunction="4way_40" toJunction="3way_21"/>
<trip id="306" depart="291.4038" fromJunction="4way_24" toJunction="3way_35"/>
<trip id="307" depart="292.3561" fromJunction="4way_18" toJunction="4way_30"/>
<trip id="308" depart="293.3084" fromJunction="4way_12" toJunction="4way_33"/>
<trip id="309" depart="294.2607" fromJunction="4way_17" toJunction="4way_38"/>
<trip id="310" depart="295.213" fromJunction="3way_20" toJunction="3way_35"/>
<trip id="311" depart="296.1653" fromJunction="3way_47" toJunction="3way_3"/>
<trip id="312" depart="297.11760000000004" fromJunction="4way_29" toJunction="3way_7"/>
<trip id="313" depart="298.0699" fromJunction="4way_33" toJunction="4way_38"/>
<trip id="314" depart="299.0222" fromJunction="3way_5" toJunction="3way_13"/>
<trip id="315" depart="299.97450000000003" fromJunction="4way_31" toJunction="4way_16"/>
<trip id="316" depart="300.9268" fromJunction="4way_26" toJunction="4way_32"/>
<trip id="317" depart="301.8791" fromJunction="3way_21" toJunction="4way_40"/>
<trip id="318" depart="302.83140000000003" fromJunction="3way_20" toJunction="3way_21"/>
<trip id="319" depart="303.7837" fromJunction="4way_37" toJunction="4way_10"/>
<trip id="320" depart="304.736" fromJunction="3way_5" toJunction="4way_32"/>
<trip id="321" depart="305.6883" fromJunction="4way_16" toJunction="4way_22"/>
<trip id="322" depart="306.6406" fromJunction="3way_27" toJunction="3way_47"/>
<trip id="323" depart="307.5929" fromJunction="3way_3" toJunction="4way_32"/>
<trip id="324" depart="308.5452" fromJunction="3way_13" toJunction="4way_15"/>
<trip id="325" depart="309.4975" fromJunction="4way_40" toJunction="4way_8"/>
<trip id="326" depart="310.44980000000004" fromJunction="4way_32" toJunction="3way_7"/>
<trip id="327" depart="311.4021" fromJunction="3way_45" toJunction="3way_13"/>
<trip id="328" depart="312.3544" fromJunction="3way_21" toJunction="3way_14"/>
<trip id="329" depart="313.30670000000003" fromJunction="3way_35" toJunction="4way_10"/>
<trip id="330" depart="314.259" fromJunction="4way_30" toJunction="4way_24"/>
<trip id="331" depart="315.2113" fromJunction="3way_7" toJunction="3way_21"/>
<trip id="332" depart="316.16360000000003" fromJunction="3way_4" toJunction="4way_23"/>
<trip id="333" depart="317.1159" fromJunction="4way_37" toJunction="4way_25"/>
<trip id="334" depart="318.0682" fromJunction="4way_36" toJunction="4way_24"/>
<trip id="335" depart="319.0205" fromJunction="3way_14" toJunction="3way_5"/>
<trip id="336" depart="319.9728" fromJunction="3way_43" toJunction="3way_14"/>
<trip id="337" depart="320.9251" fromJunction="4way_31" toJunction="3way_2"/>
<trip id="338" depart="321.8774" fromJunction="4way_23" toJunction="3way_5"/>
<trip id="339" depart="322.8297" fromJunction="4way_30" toJunction="4way_17"/>
<trip id="340" depart="323.78200000000004" fromJunction="3way_5" toJunction="4way_33"/>
<trip id="341" depart="324.7343" fromJunction="3way_2" toJunction="4way_39"/>
<trip id="342" depart="325.6866" fromJunction="3way_14" toJunction="4way_36"/>
<trip id="343" depart="326.63890000000004" fromJunction="3way_28" toJunction="4way_29"/>
<trip id="344" depart="327.5912" fromJunction="3way_1" toJunction="3way_34"/>
<trip id="345" depart="328.5435" fromJunction="4way_25" toJunction="4way_29"/>
<trip id="346" depart="329.49580000000003" fromJunction="3way_47" toJunction="3way_28"/>
<trip id="347" depart="330.4481" fromJunction="3way_5" toJunction="3way_41"/>
<trip id="348" depart="331.4004" fromJunction="3way_3" toJunction="3way_46"/>
<trip id="349" depart="332.3527" fromJunction="4way_32" toJunction="3way_3"/>
<trip id="350" depart="333.305" fromJunction="4way_9" toJunction="3way_27"/>
<trip id="351" depart="334.2573" fromJunction="4way_8" toJunction="4way_38"/>
<trip id="352" depart="335.2096" fromJunction="3way_34" toJunction="3way_20"/>
<trip id="353" depart="336.1619" fromJunction="4way_29" toJunction="3way_7"/>
<trip id="354" depart="337.11420000000004" fromJunction="4way_11" toJunction="3way_35"/>
<trip id="355" depart="338.0665" fromJunction="4way_19" toJunction="4way_31"/>
<trip id="356" depart="339.0188" fromJunction="4way_12" toJunction="3way_2"/>
<trip id="357" depart="339.97110000000004" fromJunction="4way_39" toJunction="3way_21"/>
<trip id="358" depart="340.9234" fromJunction="4way_40" toJunction="4way_17"/>
<trip id="359" depart="341.8757" fromJunction="3way_28" toJunction="4way_38"/>
<trip id="360" depart="342.82800000000003" fromJunction="3way_28" toJunction="4way_22"/>
<trip id="361" depart="343.7803" fromJunction="3way_46" toJunction="3way_28"/>
<trip id="362" depart="344.7326" fromJunction="4way_10" toJunction="4way_22"/>
<trip id="363" depart="345.6849" fromJunction="4way_29" toJunction="3way_45"/>
<trip id="364" depart="346.6372" fromJunction="3way_27" toJunction="3way_13"/>
<trip id="365" depart="347.5895" fromJunction="4way_33" toJunction="3way_3"/>
<trip id="366" depart="348.5418" fromJunction="3way_34" toJunction="3way_1"/>
<trip id="367" depart="349.4941" fromJunction="3way_4" toJunction="4way_23"/>
<trip id="368" depart="350.44640000000004" fromJunction="4way_24" toJunction="4way_39"/>
<trip id="369" depart="351.3987" fromJunction="4way_22" toJunction="4way_33"/>