<?xml version="1.0" encoding="UTF-8"?>

<!-- generated on 2023-07-29 00:31:55 by Eclipse SUMO netconvert Version 1.12.0
<configuration xmlns:xsi="http://www.w3.org/2001/XMLSchema-instance" xsi:noNamespaceSchemaLocation="http://sumo.dlr.de/xsd/netconvertConfiguration.xsd">

    <input>
        <node-files value="sq.nod.xml"/>
        <edge-files value="sq.edg.xml"/>
    </input>

    <output>
        <output-file value="sq.tmp.net.xml"/>
    </output>

    <processing>
        <lefthand value="true"/>
    </processing>

    <tls_building>
        <tls.discard-simple value="true"/>
        <tls.join value="true"/>
    </tls_building>

    <edge_removal>
        <keep-edges.components value="1"/>
    </edge_removal>

    <junctions>
        <no-turnarounds value="true"/>
    </junctions>

    <report>
        <aggregate-warnings value="5"/>
    </report>

</configuration>
-->

<net version="1.9" junctionCornerDetail="5" lefthand="true" limitTurnSpeed="5.50" xmlns:xsi="http://www.w3.org/2001/XMLSchema-instance" xsi:noNamespaceSchemaLocation="http://sumo.dlr.de/xsd/net_file.xsd">

    <location netOffset="0.00,600.00" convBoundary="0.00,-0.00,600.00,600.00" origBoundary="0.00,-600.00,600.00,0.00" projParameter="!"/>

    <edge id=":3way_1_0" function="internal">
        <lane id=":3way_1_0_0" index="0" speed="6.51" length="9.03" shape="98.40,592.80 98.05,595.25 97.00,597.00 95.25,598.05 92.80,598.40"/>
    </edge>
    <edge id=":3way_1_1" function="internal">
        <lane id=":3way_1_1_0" index="0" speed="8.00" length="14.19" shape="98.40,592.80 98.95,596.65 100.60,599.40 103.35,601.05 107.20,601.60"/>
    </edge>
    <edge id=":3way_1_2" function="internal">
        <lane id=":3way_1_2_0" index="0" speed="6.51" length="9.03" shape="107.20,598.40 104.75,598.05 103.00,597.00 101.95,595.25 101.60,592.80"/>
    </edge>
    <edge id=":3way_1_3" function="internal">
        <lane id=":3way_1_3_0" index="0" speed="13.89" length="14.40" shape="107.20,598.40 92.80,598.40"/>
    </edge>
    <edge id=":3way_1_4" function="internal">
        <lane id=":3way_1_4_0" index="0" speed="13.89" length="14.40" shape="92.80,601.60 107.20,601.60"/>
    </edge>
    <edge id=":3way_1_5" function="internal">
        <lane id=":3way_1_5_0" index="0" speed="8.00" length="4.07" shape="92.80,601.60 96.65,601.05 96.80,600.96"/>
    </edge>
    <edge id=":3way_1_6" function="internal">
        <lane id=":3way_1_6_0" index="0" speed="8.00" length="10.13" shape="96.80,600.96 99.40,599.40 101.05,596.65 101.60,592.80"/>
    </edge>
    <edge id=":3way_13_0" function="internal">
        <lane id=":3way_13_0_0" index="0" speed="6.51" length="9.03" shape="598.40,492.80 598.05,495.25 597.00,497.00 595.25,498.05 592.80,498.40"/>
    </edge>
    <edge id=":3way_13_1" function="internal">
        <lane id=":3way_13_1_0" index="0" speed="13.89" length="14.40" shape="598.40,492.80 598.40,507.20"/>
    </edge>
    <edge id=":3way_13_2" function="internal">
        <lane id=":3way_13_2_0" index="0" speed="13.89" length="14.40" shape="601.60,507.20 601.60,492.80"/>
    </edge>
    <edge id=":3way_13_3" function="internal">
        <lane id=":3way_13_3_0" index="0" speed="8.00" length="4.07" shape="601.60,507.20 601.05,503.35 600.96,503.20"/>
    </edge>
    <edge id=":3way_13_6" function="internal">
        <lane id=":3way_13_6_0" index="0" speed="8.00" length="10.13" shape="600.96,503.20 599.40,500.60 596.65,498.95 592.80,498.40"/>
    </edge>
    <edge id=":3way_13_4" function="internal">
        <lane id=":3way_13_4_0" index="0" speed="6.51" length="9.03" shape="592.80,501.60 595.25,501.95 597.00,503.00 598.05,504.75 598.40,507.20"/>
    </edge>
    <edge id=":3way_13_5" function="internal">
        <lane id=":3way_13_5_0" index="0" speed="8.00" length="14.19" shape="592.80,501.60 596.65,501.05 599.40,499.40 601.05,496.65 601.60,492.80"/>
    </edge>
    <edge id=":3way_14_0" function="internal">
        <lane id=":3way_14_0_0" index="0" speed="13.89" length="14.40" shape="-1.60,392.80 -1.60,407.20"/>
    </edge>
    <edge id=":3way_14_1" function="internal">
        <lane id=":3way_14_1_0" index="0" speed="8.00" length="4.07" shape="-1.60,392.80 -1.05,396.65 -0.96,396.80"/>
    </edge>
    <edge id=":3way_14_6" function="internal">
        <lane id=":3way_14_6_0" index="0" speed="8.00" length="10.13" shape="-0.96,396.80 0.60,399.40 3.35,401.05 7.20,401.60"/>
    </edge>
    <edge id=":3way_14_2" function="internal">
        <lane id=":3way_14_2_0" index="0" speed="6.51" length="9.03" shape="7.20,398.40 4.75,398.05 3.00,397.00 1.95,395.25 1.60,392.80"/>
    </edge>
    <edge id=":3way_14_3" function="internal">
        <lane id=":3way_14_3_0" index="0" speed="8.00" length="14.19" shape="7.20,398.40 3.35,398.95 0.60,400.60 -1.05,403.35 -1.60,407.20"/>
    </edge>
    <edge id=":3way_14_4" function="internal">
        <lane id=":3way_14_4_0" index="0" speed="6.51" length="9.03" shape="1.60,407.20 1.95,404.75 3.00,403.00 4.75,401.95 7.20,401.60"/>
    </edge>
    <edge id=":3way_14_5" function="internal">
        <lane id=":3way_14_5_0" index="0" speed="13.89" length="14.40" shape="1.60,407.20 1.60,392.80"/>
    </edge>
    <edge id=":3way_2_0" function="internal">
        <lane id=":3way_2_0_0" index="0" speed="6.51" length="9.03" shape="198.40,592.80 198.05,595.25 197.00,597.00 195.25,598.05 192.80,598.40"/>
    </edge>
    <edge id=":3way_2_1" function="internal">
        <lane id=":3way_2_1_0" index="0" speed="8.00" length="14.19" shape="198.40,592.80 198.95,596.65 200.60,599.40 203.35,601.05 207.20,601.60"/>
    </edge>
    <edge id=":3way_2_2" function="internal">
        <lane id=":3way_2_2_0" index="0" speed="6.51" length="9.03" shape="207.20,598.40 204.75,598.05 203.00,597.00 201.95,595.25 201.60,592.80"/>
    </edge>
    <edge id=":3way_2_3" function="internal">
        <lane id=":3way_2_3_0" index="0" speed="13.89" length="14.40" shape="207.20,598.40 192.80,598.40"/>
    </edge>
    <edge id=":3way_2_4" function="internal">
        <lane id=":3way_2_4_0" index="0" speed="13.89" length="14.40" shape="192.80,601.60 207.20,601.60"/>
    </edge>
    <edge id=":3way_2_5" function="internal">
        <lane id=":3way_2_5_0" index="0" speed="8.00" length="4.07" shape="192.80,601.60 196.65,601.05 196.80,600.96"/>
    </edge>
    <edge id=":3way_2_6" function="internal">
        <lane id=":3way_2_6_0" index="0" speed="8.00" length="10.13" shape="196.80,600.96 199.40,599.40 201.05,596.65 201.60,592.80"/>
    </edge>
    <edge id=":3way_20_0" function="internal">
        <lane id=":3way_20_0_0" index="0" speed="6.51" length="9.03" shape="598.40,392.80 598.05,395.25 597.00,397.00 595.25,398.05 592.80,398.40"/>
    </edge>
    <edge id=":3way_20_1" function="internal">
        <lane id=":3way_20_1_0" index="0" speed="13.89" length="14.40" shape="598.40,392.80 598.40,407.20"/>
    </edge>
    <edge id=":3way_20_2" function="internal">
        <lane id=":3way_20_2_0" index="0" speed="13.89" length="14.40" shape="601.60,407.20 601.60,392.80"/>
    </edge>
    <edge id=":3way_20_3" function="internal">
        <lane id=":3way_20_3_0" index="0" speed="8.00" length="4.07" shape="601.60,407.20 601.05,403.35 600.96,403.20"/>
    </edge>
    <edge id=":3way_20_6" function="internal">
        <lane id=":3way_20_6_0" index="0" speed="8.00" length="10.13" shape="600.96,403.20 599.40,400.60 596.65,398.95 592.80,398.40"/>
    </edge>
    <edge id=":3way_20_4" function="internal">
        <lane id=":3way_20_4_0" index="0" speed="6.51" length="9.03" shape="592.80,401.60 595.25,401.95 597.00,403.00 598.05,404.75 598.40,407.20"/>
    </edge>
    <edge id=":3way_20_5" function="internal">
        <lane id=":3way_20_5_0" index="0" speed="8.00" length="14.19" shape="592.80,401.60 596.65,401.05 599.40,399.40 601.05,396.65 601.60,392.80"/>
    </edge>
    <edge id=":3way_21_0" function="internal">
        <lane id=":3way_21_0_0" index="0" speed="13.89" length="14.40" shape="-1.60,292.80 -1.60,307.20"/>
    </edge>
    <edge id=":3way_21_1" function="internal">
        <lane id=":3way_21_1_0" index="0" speed="8.00" length="4.07" shape="-1.60,292.80 -1.05,296.65 -0.96,296.80"/>
    </edge>
    <edge id=":3way_21_6" function="internal">
        <lane id=":3way_21_6_0" index="0" speed="8.00" length="10.13" shape="-0.96,296.80 0.60,299.40 3.35,301.05 7.20,301.60"/>
    </edge>
    <edge id=":3way_21_2" function="internal">
        <lane id=":3way_21_2_0" index="0" speed="6.51" length="9.03" shape="7.20,298.40 4.75,298.05 3.00,297.00 1.95,295.25 1.60,292.80"/>
    </edge>
    <edge id=":3way_21_3" function="internal">
        <lane id=":3way_21_3_0" index="0" speed="8.00" length="14.19" shape="7.20,298.40 3.35,298.95 0.60,300.60 -1.05,303.35 -1.60,307.20"/>
    </edge>
    <edge id=":3way_21_4" function="internal">
        <lane id=":3way_21_4_0" index="0" speed="6.51" length="9.03" shape="1.60,307.20 1.95,304.75 3.00,303.00 4.75,301.95 7.20,301.60"/>
    </edge>
    <edge id=":3way_21_5" function="internal">
        <lane id=":3way_21_5_0" index="0" speed="13.89" length="14.40" shape="1.60,307.20 1.60,292.80"/>
    </edge>
    <edge id=":3way_27_0" function="internal">
        <lane id=":3way_27_0_0" index="0" speed="6.51" length="9.03" shape="598.40,292.80 598.05,295.25 597.00,297.00 595.25,298.05 592.80,298.40"/>
    </edge>
    <edge id=":3way_27_1" function="internal">
        <lane id=":3way_27_1_0" index="0" speed="13.89" length="14.40" shape="598.40,292.80 598.40,307.20"/>
    </edge>
    <edge id=":3way_27_2" function="internal">
        <lane id=":3way_27_2_0" index="0" speed="13.89" length="14.40" shape="601.60,307.20 601.60,292.80"/>
    </edge>
    <edge id=":3way_27_3" function="internal">
        <lane id=":3way_27_3_0" index="0" speed="8.00" length="4.07" shape="601.60,307.20 601.05,303.35 600.96,303.20"/>
    </edge>
    <edge id=":3way_27_6" function="internal">
        <lane id=":3way_27_6_0" index="0" speed="8.00" length="10.13" shape="600.96,303.20 599.40,300.60 596.65,298.95 592.80,298.40"/>
    </edge>
    <edge id=":3way_27_4" function="internal">
        <lane id=":3way_27_4_0" index="0" speed="6.51" length="9.03" shape="592.80,301.60 595.25,301.95 597.00,303.00 598.05,304.75 598.40,307.20"/>
    </edge>
    <edge id=":3way_27_5" function="internal">
        <lane id=":3way_27_5_0" index="0" speed="8.00" length="14.19" shape="592.80,301.60 596.65,301.05 599.40,299.40 601.05,296.65 601.60,292.80"/>
    </edge>
    <edge id=":3way_28_0" function="internal">
        <lane id=":3way_28_0_0" index="0" speed="13.89" length="14.40" shape="-1.60,192.80 -1.60,207.20"/>
    </edge>
    <edge id=":3way_28_1" function="internal">
        <lane id=":3way_28_1_0" index="0" speed="8.00" length="4.07" shape="-1.60,192.80 -1.05,196.65 -0.96,196.80"/>
    </edge>
    <edge id=":3way_28_6" function="internal">
        <lane id=":3way_28_6_0" index="0" speed="8.00" length="10.13" shape="-0.96,196.80 0.60,199.40 3.35,201.05 7.20,201.60"/>
    </edge>
    <edge id=":3way_28_2" function="internal">
        <lane id=":3way_28_2_0" index="0" speed="6.51" length="9.03" shape="7.20,198.40 4.75,198.05 3.00,197.00 1.95,195.25 1.60,192.80"/>
    </edge>
    <edge id=":3way_28_3" function="internal">
        <lane id=":3way_28_3_0" index="0" speed="8.00" length="14.19" shape="7.20,198.40 3.35,198.95 0.60,200.60 -1.05,203.35 -1.60,207.20"/>
    </edge>
    <edge id=":3way_28_4" function="internal">
        <lane id=":3way_28_4_0" index="0" speed="6.51" length="9.03" shape="1.60,207.20 1.95,204.75 3.00,203.00 4.75,201.95 7.20,201.60"/>
    </edge>
    <edge id=":3way_28_5" function="internal">
        <lane id=":3way_28_5_0" index="0" speed="13.89" length="14.40" shape="1.60,207.20 1.60,192.80"/>
    </edge>
    <edge id=":3way_3_0" function="internal">
        <lane id=":3way_3_0_0" index="0" speed="6.51" length="9.03" shape="298.40,592.80 298.05,595.25 297.00,597.00 295.25,598.05 292.80,598.40"/>
    </edge>
    <edge id=":3way_3_1" function="internal">
        <lane id=":3way_3_1_0" index="0" speed="8.00" length="14.19" shape="298.40,592.80 298.95,596.65 300.60,599.40 303.35,601.05 307.20,601.60"/>
    </edge>
    <edge id=":3way_3_2" function="internal">
        <lane id=":3way_3_2_0" index="0" speed="6.51" length="9.03" shape="307.20,598.40 304.75,598.05 303.00,597.00 301.95,595.25 301.60,592.80"/>
    </edge>
    <edge id=":3way_3_3" function="internal">
        <lane id=":3way_3_3_0" index="0" speed="13.89" length="14.40" shape="307.20,598.40 292.80,598.40"/>
    </edge>
    <edge id=":3way_3_4" function="internal">
        <lane id=":3way_3_4_0" index="0" speed="13.89" length="14.40" shape="292.80,601.60 307.20,601.60"/>
    </edge>
    <edge id=":3way_3_5" function="internal">
        <lane id=":3way_3_5_0" index="0" speed="8.00" length="4.07" shape="292.80,601.60 296.65,601.05 296.80,600.96"/>
    </edge>
    <edge id=":3way_3_6" function="internal">
        <lane id=":3way_3_6_0" index="0" speed="8.00" length="10.13" shape="296.80,600.96 299.40,599.40 301.05,596.65 301.60,592.80"/>
    </edge>
    <edge id=":3way_34_0" function="internal">
        <lane id=":3way_34_0_0" index="0" speed="6.51" length="9.03" shape="598.40,192.80 598.05,195.25 597.00,197.00 595.25,198.05 592.80,198.40"/>
    </edge>
    <edge id=":3way_34_1" function="internal">
        <lane id=":3way_34_1_0" index="0" speed="13.89" length="14.40" shape="598.40,192.80 598.40,207.20"/>
    </edge>
    <edge id=":3way_34_2" function="internal">
        <lane id=":3way_34_2_0" index="0" speed="13.89" length="14.40" shape="601.60,207.20 601.60,192.80"/>
    </edge>
    <edge id=":3way_34_3" function="internal">
        <lane id=":3way_34_3_0" index="0" speed="8.00" length="4.07" shape="601.60,207.20 601.05,203.35 600.96,203.20"/>
    </edge>
    <edge id=":3way_34_6" function="internal">
        <lane id=":3way_34_6_0" index="0" speed="8.00" length="10.13" shape="600.96,203.20 599.40,200.60 596.65,198.95 592.80,198.40"/>
    </edge>
    <edge id=":3way_34_4" function="internal">
        <lane id=":3way_34_4_0" index="0" speed="6.51" length="9.03" shape="592.80,201.60 595.25,201.95 597.00,203.00 598.05,204.75 598.40,207.20"/>
    </edge>
    <edge id=":3way_34_5" function="internal">
        <lane id=":3way_34_5_0" index="0" speed="8.00" length="14.19" shape="592.80,201.60 596.65,201.05 599.40,199.40 601.05,196.65 601.60,192.80"/>
    </edge>
    <edge id=":3way_35_0" function="internal">
        <lane id=":3way_35_0_0" index="0" speed="13.89" length="14.40" shape="-1.60,92.80 -1.60,107.20"/>
    </edge>
    <edge id=":3way_35_1" function="internal">
        <lane id=":3way_35_1_0" index="0" speed="8.00" length="4.07" shape="-1.60,92.80 -1.05,96.65 -0.96,96.80"/>
    </edge>
    <edge id=":3way_35_6" function="internal">
        <lane id=":3way_35_6_0" index="0" speed="8.00" length="10.13" shape="-0.96,96.80 0.60,99.40 3.35,101.05 7.20,101.60"/>
    </edge>
    <edge id=":3way_35_2" function="internal">
        <lane id=":3way_35_2_0" index="0" speed="6.51" length="9.03" shape="7.20,98.40 4.75,98.05 3.00,97.00 1.95,95.25 1.60,92.80"/>
    </edge>
    <edge id=":3way_35_3" function="internal">
        <lane id=":3way_35_3_0" index="0" speed="8.00" length="14.19" shape="7.20,98.40 3.35,98.95 0.60,100.60 -1.05,103.35 -1.60,107.20"/>
    </edge>
    <edge id=":3way_35_4" function="internal">
        <lane id=":3way_35_4_0" index="0" speed="6.51" length="9.03" shape="1.60,107.20 1.95,104.75 3.00,103.00 4.75,101.95 7.20,101.60"/>
    </edge>
    <edge id=":3way_35_5" function="internal">
        <lane id=":3way_35_5_0" index="0" speed="13.89" length="14.40" shape="1.60,107.20 1.60,92.80"/>
    </edge>
    <edge id=":3way_4_0" function="internal">
        <lane id=":3way_4_0_0" index="0" speed="6.51" length="9.03" shape="398.40,592.80 398.05,595.25 397.00,597.00 395.25,598.05 392.80,598.40"/>
    </edge>
    <edge id=":3way_4_1" function="internal">
        <lane id=":3way_4_1_0" index="0" speed="8.00" length="14.19" shape="398.40,592.80 398.95,596.65 400.60,599.40 403.35,601.05 407.20,601.60"/>
    </edge>
    <edge id=":3way_4_2" function="internal">
        <lane id=":3way_4_2_0" index="0" speed="6.51" length="9.03" shape="407.20,598.40 404.75,598.05 403.00,597.00 401.95,595.25 401.60,592.80"/>
    </edge>
    <edge id=":3way_4_3" function="internal">
        <lane id=":3way_4_3_0" index="0" speed="13.89" length="14.40" shape="407.20,598.40 392.80,598.40"/>
    </edge>
    <edge id=":3way_4_4" function="internal">
        <lane id=":3way_4_4_0" index="0" speed="13.89" length="14.40" shape="392.80,601.60 407.20,601.60"/>
    </edge>
    <edge id=":3way_4_5" function="internal">
        <lane id=":3way_4_5_0" index="0" speed="8.00" length="4.07" shape="392.80,601.60 396.65,601.05 396.80,600.96"/>
    </edge>
    <edge id=":3way_4_6" function="internal">
        <lane id=":3way_4_6_0" index="0" speed="8.00" length="10.13" shape="396.80,600.96 399.40,599.40 401.05,596.65 401.60,592.80"/>
    </edge>
    <edge id=":3way_41_0" function="internal">
        <lane id=":3way_41_0_0" index="0" speed="6.51" length="9.03" shape="598.40,92.80 598.05,95.25 597.00,97.00 595.25,98.05 592.80,98.40"/>
    </edge>
    <edge id=":3way_41_1" function="internal">
        <lane id=":3way_41_1_0" index="0" speed="13.89" length="14.40" shape="598.40,92.80 598.40,107.20"/>
    </edge>
    <edge id=":3way_41_2" function="internal">
        <lane id=":3way_41_2_0" index="0" speed="13.89" length="14.40" shape="601.60,107.20 601.60,92.80"/>
    </edge>
    <edge id=":3way_41_3" function="internal">
        <lane id=":3way_41_3_0" index="0" speed="8.00" length="4.07" shape="601.60,107.20 601.05,103.35 600.96,103.20"/>
    </edge>
    <edge id=":3way_41_6" function="internal">
        <lane id=":3way_41_6_0" index="0" speed="8.00" length="10.13" shape="600.96,103.20 599.40,100.60 596.65,98.95 592.80,98.40"/>
    </edge>
    <edge id=":3way_41_4" function="internal">
        <lane id=":3way_41_4_0" index="0" speed="6.51" length="9.03" shape="592.80,101.60 595.25,101.95 597.00,103.00 598.05,104.75 598.40,107.20"/>
    </edge>
    <edge id=":3way_41_5" function="internal">
        <lane id=":3way_41_5_0" index="0" speed="8.00" length="14.19" shape="592.80,101.60 596.65,101.05 599.40,99.40 601.05,96.65 601.60,92.80"/>
    </edge>
    <edge id=":3way_43_0" function="internal">
        <lane id=":3way_43_0_0" index="0" speed="13.89" length="14.40" shape="107.20,-1.60 92.80,-1.60"/>
    </edge>
    <edge id=":3way_43_1" function="internal">
        <lane id=":3way_43_1_0" index="0" speed="8.00" length="4.07" shape="107.20,-1.60 103.35,-1.05 103.20,-0.96"/>
    </edge>
    <edge id=":3way_43_6" function="internal">
        <lane id=":3way_43_6_0" index="0" speed="8.00" length="10.13" shape="103.20,-0.96 100.60,0.60 98.95,3.35 98.40,7.20"/>
    </edge>
    <edge id=":3way_43_2" function="internal">
        <lane id=":3way_43_2_0" index="0" speed="6.51" length="9.03" shape="101.60,7.20 101.95,4.75 103.00,3.00 104.75,1.95 107.20,1.60"/>
    </edge>
    <edge id=":3way_43_3" function="internal">
        <lane id=":3way_43_3_0" index="0" speed="8.00" length="14.19" shape="101.60,7.20 101.05,3.35 99.40,0.60 96.65,-1.05 92.80,-1.60"/>
    </edge>
    <edge id=":3way_43_4" function="internal">
        <lane id=":3way_43_4_0" index="0" speed="6.51" length="9.03" shape="92.80,1.60 95.25,1.95 97.00,3.00 98.05,4.75 98.40,7.20"/>
    </edge>
    <edge id=":3way_43_5" function="internal">
        <lane id=":3way_43_5_0" index="0" speed="13.89" length="14.40" shape="92.80,1.60 107.20,1.60"/>
    </edge>
    <edge id=":3way_44_0" function="internal">
        <lane id=":3way_44_0_0" index="0" speed="13.89" length="14.40" shape="207.20,-1.60 192.80,-1.60"/>
    </edge>
    <edge id=":3way_44_1" function="internal">
        <lane id=":3way_44_1_0" index="0" speed="8.00" length="4.07" shape="207.20,-1.60 203.35,-1.05 203.20,-0.96"/>
    </edge>
    <edge id=":3way_44_6" function="internal">
        <lane id=":3way_44_6_0" index="0" speed="8.00" length="10.13" shape="203.20,-0.96 200.60,0.60 198.95,3.35 198.40,7.20"/>
    </edge>
    <edge id=":3way_44_2" function="internal">
        <lane id=":3way_44_2_0" index="0" speed="6.51" length="9.03" shape="201.60,7.20 201.95,4.75 203.00,3.00 204.75,1.95 207.20,1.60"/>
    </edge>
    <edge id=":3way_44_3" function="internal">
        <lane id=":3way_44_3_0" index="0" speed="8.00" length="14.19" shape="201.60,7.20 201.05,3.35 199.40,0.60 196.65,-1.05 192.80,-1.60"/>
    </edge>
    <edge id=":3way_44_4" function="internal">
        <lane id=":3way_44_4_0" index="0" speed="6.51" length="9.03" shape="192.80,1.60 195.25,1.95 197.00,3.00 198.05,4.75 198.40,7.20"/>
    </edge>
    <edge id=":3way_44_5" function="internal">
        <lane id=":3way_44_5_0" index="0" speed="13.89" length="14.40" shape="192.80,1.60 207.20,1.60"/>
    </edge>
    <edge id=":3way_45_0" function="internal">
        <lane id=":3way_45_0_0" index="0" speed="13.89" length="14.40" shape="307.20,-1.60 292.80,-1.60"/>
    </edge>
    <edge id=":3way_45_1" function="internal">
        <lane id=":3way_45_1_0" index="0" speed="8.00" length="4.07" shape="307.20,-1.60 303.35,-1.05 303.20,-0.96"/>
    </edge>
    <edge id=":3way_45_6" function="internal">
        <lane id=":3way_45_6_0" index="0" speed="8.00" length="10.13" shape="303.20,-0.96 300.60,0.60 298.95,3.35 298.40,7.20"/>
    </edge>
    <edge id=":3way_45_2" function="internal">
        <lane id=":3way_45_2_0" index="0" speed="6.51" length="9.03" shape="301.60,7.20 301.95,4.75 303.00,3.00 304.75,1.95 307.20,1.60"/>
    </edge>
    <edge id=":3way_45_3" function="internal">
        <lane id=":3way_45_3_0" index="0" speed="8.00" length="14.19" shape="301.60,7.20 301.05,3.35 299.40,0.60 296.65,-1.05 292.80,-1.60"/>
    </edge>
    <edge id=":3way_45_4" function="internal">
        <lane id=":3way_45_4_0" index="0" speed="6.51" length="9.03" shape="292.80,1.60 295.25,1.95 297.00,3.00 298.05,4.75 298.40,7.20"/>
    </edge>
    <edge id=":3way_45_5" function="internal">
        <lane id=":3way_45_5_0" index="0" speed="13.89" length="14.40" shape="292.80,1.60 307.20,1.60"/>
    </edge>
    <edge id=":3way_46_0" function="internal">
        <lane id=":3way_46_0_0" index="0" speed="13.89" length="14.40" shape="407.20,-1.60 392.80,-1.60"/>
    </edge>
    <edge id=":3way_46_1" function="internal">
        <lane id=":3way_46_1_0" index="0" speed="8.00" length="4.07" shape="407.20,-1.60 403.35,-1.05 403.20,-0.96"/>
    </edge>
    <edge id=":3way_46_6" function="internal">
        <lane id=":3way_46_6_0" index="0" speed="8.00" length="10.13" shape="403.20,-0.96 400.60,0.60 398.95,3.35 398.40,7.20"/>
    </edge>
    <edge id=":3way_46_2" function="internal">
        <lane id=":3way_46_2_0" index="0" speed="6.51" length="9.03" shape="401.60,7.20 401.95,4.75 403.00,3.00 404.75,1.95 407.20,1.60"/>
    </edge>
    <edge id=":3way_46_3" function="internal">
        <lane id=":3way_46_3_0" index="0" speed="8.00" length="14.19" shape="401.60,7.20 401.05,3.35 399.40,0.60 396.65,-1.05 392.80,-1.60"/>
    </edge>
    <edge id=":3way_46_4" function="internal">
        <lane id=":3way_46_4_0" index="0" speed="6.51" length="9.03" shape="392.80,1.60 395.25,1.95 397.00,3.00 398.05,4.75 398.40,7.20"/>
    </edge>
    <edge id=":3way_46_5" function="internal">
        <lane id=":3way_46_5_0" index="0" speed="13.89" length="14.40" shape="392.80,1.60 407.20,1.60"/>
    </edge>
    <edge id=":3way_47_0" function="internal">
        <lane id=":3way_47_0_0" index="0" speed="13.89" length="14.40" shape="507.20,-1.60 492.80,-1.60"/>
    </edge>
    <edge id=":3way_47_1" function="internal">
        <lane id=":3way_47_1_0" index="0" speed="8.00" length="4.07" shape="507.20,-1.60 503.35,-1.05 503.20,-0.96"/>
    </edge>
    <edge id=":3way_47_6" function="internal">
        <lane id=":3way_47_6_0" index="0" speed="8.00" length="10.13" shape="503.20,-0.96 500.60,0.60 498.95,3.35 498.40,7.20"/>
    </edge>
    <edge id=":3way_47_2" function="internal">
        <lane id=":3way_47_2_0" index="0" speed="6.51" length="9.03" shape="501.60,7.20 501.95,4.75 503.00,3.00 504.75,1.95 507.20,1.60"/>
    </edge>
    <edge id=":3way_47_3" function="internal">
        <lane id=":3way_47_3_0" index="0" speed="8.00" length="14.19" shape="501.60,7.20 501.05,3.35 499.40,0.60 496.65,-1.05 492.80,-1.60"/>
    </edge>
    <edge id=":3way_47_4" function="internal">
        <lane id=":3way_47_4_0" index="0" speed="6.51" length="9.03" shape="492.80,1.60 495.25,1.95 497.00,3.00 498.05,4.75 498.40,7.20"/>
    </edge>
    <edge id=":3way_47_5" function="internal">
        <lane id=":3way_47_5_0" index="0" speed="13.89" length="14.40" shape="492.80,1.60 507.20,1.60"/>
    </edge>
    <edge id=":3way_5_0" function="internal">
        <lane id=":3way_5_0_0" index="0" speed="6.51" length="9.03" shape="498.40,592.80 498.05,595.25 497.00,597.00 495.25,598.05 492.80,598.40"/>
    </edge>
    <edge id=":3way_5_1" function="internal">
        <lane id=":3way_5_1_0" index="0" speed="8.00" length="14.19" shape="498.40,592.80 498.95,596.65 500.60,599.40 503.35,601.05 507.20,601.60"/>
    </edge>
    <edge id=":3way_5_2" function="internal">
        <lane id=":3way_5_2_0" index="0" speed="6.51" length="9.03" shape="507.20,598.40 504.75,598.05 503.00,597.00 501.95,595.25 501.60,592.80"/>
    </edge>
    <edge id=":3way_5_3" function="internal">
        <lane id=":3way_5_3_0" index="0" speed="13.89" length="14.40" shape="507.20,598.40 492.80,598.40"/>
    </edge>
    <edge id=":3way_5_4" function="internal">
        <lane id=":3way_5_4_0" index="0" speed="13.89" length="14.40" shape="492.80,601.60 507.20,601.60"/>
    </edge>
    <edge id=":3way_5_5" function="internal">
        <lane id=":3way_5_5_0" index="0" speed="8.00" length="4.07" shape="492.80,601.60 496.65,601.05 496.80,600.96"/>
    </edge>
    <edge id=":3way_5_6" function="internal">
        <lane id=":3way_5_6_0" index="0" speed="8.00" length="10.13" shape="496.80,600.96 499.40,599.40 501.05,596.65 501.60,592.80"/>
    </edge>
    <edge id=":3way_7_0" function="internal">
        <lane id=":3way_7_0_0" index="0" speed="13.89" length="14.40" shape="-1.60,492.80 -1.60,507.20"/>
    </edge>
    <edge id=":3way_7_1" function="internal">
        <lane id=":3way_7_1_0" index="0" speed="8.00" length="4.07" shape="-1.60,492.80 -1.05,496.65 -0.96,496.80"/>
    </edge>
    <edge id=":3way_7_6" function="internal">
        <lane id=":3way_7_6_0" index="0" speed="8.00" length="10.13" shape="-0.96,496.80 0.60,499.40 3.35,501.05 7.20,501.60"/>
    </edge>
    <edge id=":3way_7_2" function="internal">
        <lane id=":3way_7_2_0" index="0" speed="6.51" length="9.03" shape="7.20,498.40 4.75,498.05 3.00,497.00 1.95,495.25 1.60,492.80"/>
    </edge>
    <edge id=":3way_7_3" function="internal">
        <lane id=":3way_7_3_0" index="0" speed="8.00" length="14.19" shape="7.20,498.40 3.35,498.95 0.60,500.60 -1.05,503.35 -1.60,507.20"/>
    </edge>
    <edge id=":3way_7_4" function="internal">
        <lane id=":3way_7_4_0" index="0" speed="6.51" length="9.03" shape="1.60,507.20 1.95,504.75 3.00,503.00 4.75,501.95 7.20,501.60"/>
    </edge>
    <edge id=":3way_7_5" function="internal">
        <lane id=":3way_7_5_0" index="0" speed="13.89" length="14.40" shape="1.60,507.20 1.60,492.80"/>
    </edge>
    <edge id=":4way_10_0" function="internal">
        <lane id=":4way_10_0_0" index="0" speed="6.51" length="9.03" shape="298.40,492.80 298.05,495.25 297.00,497.00 295.25,498.05 292.80,498.40"/>
    </edge>
    <edge id=":4way_10_1" function="internal">
        <lane id=":4way_10_1_0" index="0" speed="13.89" length="14.40" shape="298.40,492.80 298.40,507.20"/>
    </edge>
    <edge id=":4way_10_2" function="internal">
        <lane id=":4way_10_2_0" index="0" speed="8.00" length="4.07" shape="298.40,492.80 298.95,496.65 299.04,496.80"/>
    </edge>
    <edge id=":4way_10_12" function="internal">
        <lane id=":4way_10_12_0" index="0" speed="8.00" length="10.13" shape="299.04,496.80 300.60,499.40 303.35,501.05 307.20,501.60"/>
    </edge>
    <edge id=":4way_10_3" function="internal">
        <lane id=":4way_10_3_0" index="0" speed="6.51" length="9.03" shape="307.20,498.40 304.75,498.05 303.00,497.00 301.95,495.25 301.60,492.80"/>
    </edge>
    <edge id=":4way_10_4" function="internal">
        <lane id=":4way_10_4_0" index="0" speed="13.89" length="14.40" shape="307.20,498.40 292.80,498.40"/>
    </edge>
    <edge id=":4way_10_5" function="internal">
        <lane id=":4way_10_5_0" index="0" speed="8.00" length="4.07" shape="307.20,498.40 303.35,498.95 303.20,499.04"/>
    </edge>
    <edge id=":4way_10_13" function="internal">
        <lane id=":4way_10_13_0" index="0" speed="8.00" length="10.13" shape="303.20,499.04 300.60,500.60 298.95,503.35 298.40,507.20"/>
    </edge>
    <edge id=":4way_10_6" function="internal">
        <lane id=":4way_10_6_0" index="0" speed="6.51" length="9.03" shape="301.60,507.20 301.95,504.75 303.00,503.00 304.75,501.95 307.20,501.60"/>
    </edge>
    <edge id=":4way_10_7" function="internal">
        <lane id=":4way_10_7_0" index="0" speed="13.89" length="14.40" shape="301.60,507.20 301.60,492.80"/>
    </edge>
    <edge id=":4way_10_8" function="internal">
        <lane id=":4way_10_8_0" index="0" speed="8.00" length="4.07" shape="301.60,507.20 301.05,503.35 300.96,503.20"/>
    </edge>
    <edge id=":4way_10_14" function="internal">
        <lane id=":4way_10_14_0" index="0" speed="8.00" length="10.13" shape="300.96,503.20 299.40,500.60 296.65,498.95 292.80,498.40"/>
    </edge>
    <edge id=":4way_10_9" function="internal">
        <lane id=":4way_10_9_0" index="0" speed="6.51" length="9.03" shape="292.80,501.60 295.25,501.95 297.00,503.00 298.05,504.75 298.40,507.20"/>
    </edge>
    <edge id=":4way_10_10" function="internal">