<routes xmlns:xsi="http://www.w3.org/2001/XMLSchema-instance" xsi:noNamespaceSchemaLocation="http://sumo.dlr.de/xsd/routes_file.xsd">
<trip id="0" depart="0.0" fromJunction="4way_12" toJunction="4way_26"/>
<trip id="1" depart="0.2777" fromJunction="4way_26" toJunction="4way_11"/>
<trip id="2" depart="0.5554" fromJunction="4way_27" toJunction="4way_17"/>
<trip id="3" depart="0.8331" fromJunction="4way_53" toJunction="4way_25"/>
<trip id="4" depart="1.1108" fromJunction="3way_8" toJunction="4way_38"/>
<trip id="5" depart="1.3885" fromJunction="4way_18" toJunction="4way_52"/>
<trip id="6" depart="1.6662" fromJunction="4way_22" toJunction="4way_42"/>
<trip id="7" depart="1.9439" fromJunction="3way_6" toJunction="3way_5"/>
<trip id="8" depart="2.2216" fromJunction="4way_21" toJunction="3way_2"/>
<trip id="9" depart="2.4993" fromJunction="4way_45" toJunction="4way_44"/>
<trip id="10" depart="2.777" fromJunction="4way_52" toJunction="4way_46"/>
<trip id="11" depart="3.0547" fromJunction="4way_44" toJunction="4way_33"/>
<trip id="12" depart="3.3324" fromJunction="4way_27" toJunction="3way_23"/>
<trip id="13" depart="3.6101" fromJunction="4way_30" toJunction="3way_31"/>
<trip id="14" depart="3.8878" fromJunction="4way_9" toJunction="4way_18"/>
<trip id="15" depart="4.1655" fromJunction="4way_44" toJunction="3way_59"/>
<trip id="16" depart="4.4432" fromJunction="4way_42" toJunction="4way_33"/>
<trip id="17" depart="4.7209" fromJunction="4way_19" toJunction="3way_2"/>
<trip id="18" depart="4.9986" fromJunction="4way_19" toJunction="4way_11"/>
<trip id="19" depart="5.2763" fromJunction="4way_43" toJunction="4way_30"/>
<trip id="20" depart="5.554" fromJunction="4way_25" toJunction="3way_24"/>
<trip id="21" depart="5.8317" fromJunction="3way_4" toJunction="4way_51"/>
<trip id="22" depart="6.1094" fromJunction="3way_23" toJunction="3way_62"/>
<trip id="23" depart="6.3871" fromJunction="3way_24" toJunction="3way_48"/>
<trip id="24" depart="6.6648" fromJunction="4way_25" toJunction="4way_42"/>
<trip id="25" depart="6.9425" fromJunction="3way_15" toJunction="4way_54"/>
<trip id="26" depart="7.2202" fromJunction="3way_39" toJunction="3way_62"/>
<trip id="27" depart="7.4979000000000005" fromJunction="3way_59" toJunction="4way_35"/>
<trip id="28" depart="7.7756" fromJunction="3way_60" toJunction="4way_33"/>
<trip id="29" depart="8.0533" fromJunction="3way_15" toJunction="3way_39"/>
<trip id="30" depart="8.331" fromJunction="3way_31" toJunction="4way_35"/>
<trip id="31" depart="8.6087" fromJunction="3way_16" toJunction="3way_55"/>
<trip id="32" depart="8.8864" fromJunction="3way_6" toJunction="4way_21"/>
<trip id="33" depart="9.1641" fromJunction="3way_6" toJunction="4way_29"/>
<trip id="34" depart="9.4418" fromJunction="4way_41" toJunction="4way_46"/>
<trip id="35" depart="9.7195" fromJunction="4way_11" toJunction="4way_46"/>
<trip id="36" depart="9.9972" fromJunction="3way_3" toJunction="4way_28"/>
<trip id="37" depart="10.2749" fromJunction="3way_23" toJunction="3way_58"/>
<trip id="38" depart="10.5526" fromJunction="3way_23" toJunction="3way_57"/>
<trip id="39" depart="10.8303" fromJunction="4way_9" toJunction="3way_40"/>
<trip id="40" depart="11.108" fromJunction="4way_51" toJunction="3way_4"/>
<trip id="41" depart="11.3857" fromJunction="3way_59" toJunction="4way_34"/>
<trip id="42" depart="11.6634" fromJunction="3way_6" toJunction="4way_18"/>
<trip id="43" depart="11.9411" fromJunction="4way_22" toJunction="4way_42"/>
<trip id="44" depart="12.2188" fromJunction="4way_43" toJunction="3way_40"/>
<trip id="45" depart="12.4965" fromJunction="4way_12" toJunction="3way_23"/>
<trip id="46" depart="12.7742" fromJunction="3way_47" toJunction="3way_57"/>
<trip id="47" depart="13.0519" fromJunction="3way_2" toJunction="4way_50"/>
<trip id="48" depart="13.3296" fromJunction="3way_1" toJunction="4way_21"/>
<trip id="49" depart="13.6073" fromJunction="3way_58" toJunction="4way_43"/>
<trip id="50" depart="13.885" fromJunction="4way_38" toJunction="4way_28"/>
<trip id="51" depart="14.162700000000001" fromJunction="4way_42" toJunction="3way_60"/>
<trip id="52" depart="14.4404" fromJunction="4way_42" toJunction="4way_50"/>
<trip id="53" depart="14.7181" fromJunction="4way_38" toJunction="3way_61"/>
<trip id="54" depart="14.995800000000001" fromJunction="4way_29" toJunction="4way_25"/>
<trip id="55" depart="15.2735" fromJunction="3way_57" toJunction="4way_51"/>
<trip id="56" depart="15.5512" fromJunction="3way_8" toJunction="4way_13"/>
<trip id="57" depart="15.8289" fromJunction="4way_42" toJunction="4way_45"/>
<trip id="58" depart="16.1066" fromJunction="4way_51" toJunction="4way_45"/>
<trip id="59" depart="16.3843" fromJunction="4way_10" toJunction="4way_20"/>
<trip id="60" depart="16.662" fromJunction="4way_27" toJunction="4way_38"/>
<trip id="61" depart="16.9397" fromJunction="4way_11" toJunction="4way_17"/>
<trip id="62" depart="17.2174" fromJunction="3way_48" toJunction="3way_2"/>
<trip id="63" depart="17.4951" fromJunction="3way_57" toJunction="4way_35"/>
<trip id="64" depart="17.7728" fromJunction="4way_17" toJunction="4way_19"/>
<trip id="65" depart="18.0505" fromJunction="3way_57" toJunction="3way_31"/>
<trip id="66" depart="18.3282" fromJunction="4way_50" toJunction="4way_42"/>
<trip id="67" depart="18.605900000000002" fromJunction="4way_35" toJunction="4way_42"/>
<trip id="68" depart="18.8836" fromJunction="4way_17" toJunction="4way_35"/>
<trip id="69" depart="19.1613" fromJunction="3way_16" toJunction="4way_53"/>
<trip id="70" depart="19.439" fromJunction="4way_53" toJunction="4way_25"/>
<trip id="71" depart="19.7167" fromJunction="4way_12" toJunction="4way_13"/>
<trip id="72" depart="19.9944" fromJunction="4way_22" toJunction="3way_15"/>
<trip id="73" depart="20.272100000000002" fromJunction="4way_54" toJunction="4way_12"/>
<trip id="74" depart="20.5498" fromJunction="4way_45" toJunction="3way_31"/>
<trip id="75" depart="20.8275" fromJunction="4way_11" toJunction="3way_39"/>
<trip id="76" depart="21.1052" fromJunction="4way_29" toJunction="3way_23"/>
<trip id="77" depart="21.3829" fromJunction="4way_42" toJunction="4way_13"/>
<trip id="78" depart="21.6606" fromJunction="3way_5" toJunction="4way_9"/>
<trip id="79" depart="21.9383" fromJunction="4way_33" toJunction="4way_51"/>
<trip id="80" depart="22.216" fromJunction="4way_37" toJunction="4way_20"/>
<trip id="81" depart="22.4937" fromJunction="4way_37" toJunction="4way_46"/>
<trip id="82" depart="22.7714" fromJunction="3way_24" toJunction="3way_1"/>
<trip id="83" depart="23.0491" fromJunction="3way_47" toJunction="4way_20"/>
<trip id="84" depart="23.3268" fromJunction="3way_4" toJunction="4way_18"/>
<trip id="85" depart="23.6045" fromJunction="3way_2" toJunction="3way_55"/>
<trip id="86" depart="23.8822" fromJunction="3way_61" toJunction="4way_52"/>
<trip id="87" depart="24.1599" fromJunction="4way_22" toJunction="3way_32"/>
<trip id="88" depart="24.4376" fromJunction="3way_2" toJunction="4way_12"/>
<trip id="89" depart="24.7153" fromJunction="4way_19" toJunction="3way_39"/>
<trip id="90" depart="24.993" fromJunction="3way_60" toJunction="4way_42"/>
<trip id="91" depart="25.2707" fromJunction="4way_11" toJunction="4way_30"/>
<trip id="92" depart="25.5484" fromJunction="4way_50" toJunction="4way_26"/>
<trip id="93" depart="25.8261" fromJunction="3way_48" toJunction="4way_20"/>
<trip id="94" depart="26.1038" fromJunction="3way_62" toJunction="3way_8"/>
<trip id="95" depart="26.3815" fromJunction="4way_30" toJunction="3way_55"/>
<trip id="96" depart="26.6592" fromJunction="4way_49" toJunction="4way_28"/>
<trip id="97" depart="26.9369" fromJunction="3way_59" toJunction="3way_61"/>
<trip id="98" depart="27.2146" fromJunction="4way_25" toJunction="3way_4"/>
<trip id="99" depart="27.4923" fromJunction="4way_51" toJunction="3way_48"/>
<trip id="100" depart="27.77" fromJunction="3way_47" toJunction="3way_16"/>
<trip id="101" depart="28.0477" fromJunction="3way_5" toJunction="3way_2"/>
<trip id="102" depart="28.325400000000002" fromJunction="4way_33" toJunction="4way_43"/>
<trip id="103" depart="28.6031" fromJunction="4way_53" toJunction="4way_26"/>
<trip id="104" depart="28.8808" fromJunction="3way_61" toJunction="4way_54"/>
<trip id="105" depart="29.1585" fromJunction="3way_59" toJunction="4way_35"/>
<trip id="106" depart="29.4362" fromJunction="4way_36" toJunction="3way_2"/>
<trip id="107" depart="29.7139" fromJunction="3way_8" toJunction="3way_40"/>
<trip id="108" depart="29.991600000000002" fromJunction="4way_21" toJunction="4way_50"/>
<trip id="109" depart="30.2693" fromJunction="4way_45" toJunction="4way_19"/>
<trip id="110" depart="30.547" fromJunction="4way_52" toJunction="3way_58"/>
<trip id="111" depart="30.8247" fromJunction="4way_38" toJunction="3way_55"/>
<trip id="112" depart="31.1024" fromJunction="3way_62" toJunction="4way_51"/>
<trip id="113" depart="31.3801" fromJunction="4way_20" toJunction="4way_30"/>
<trip id="114" depart="31.6578" fromJunction="3way_62" toJunction="3way_59"/>
<trip id="115" depart="31.9355" fromJunction="3way_2" toJunction="4way_18"/>
<trip id="116" depart="32.2132" fromJunction="4way_17" toJunction="3way_62"/>
<trip id="117" depart="32.4909" fromJunction="4way_33" toJunction="3way_16"/>
<trip id="118" depart="32.7686" fromJunction="4way_50" toJunction="3way_58"/>
<trip id="119" depart="33.0463" fromJunction="3way_23" toJunction="4way_37"/>
<trip id="120" depart="33.324" fromJunction="3way_23" toJunction="4way_18"/>
<trip id="121" depart="33.6017" fromJunction="3way_8" toJunction="4way_20"/>
<trip id="122" depart="33.8794" fromJunction="3way_47" toJunction="4way_34"/>
<trip id="123" depart="34.1571" fromJunction="4way_49" toJunction="3way_31"/>
<trip id="124" depart="34.4348" fromJunction="4way_30" toJunction="3way_24"/>
<trip id="125" depart="34.7125" fromJunction="4way_28" toJunction="4way_36"/>
<trip id="126" depart="34.9902" fromJunction="3way_6" toJunction="4way_14"/>
<trip id="127" depart="35.2679" fromJunction="4way_50" toJunction="4way_34"/>
<trip id="128" depart="35.5456" fromJunction="3way_57" toJunction="4way_38"/>
<trip id="129" depart="35.8233" fromJunction="3way_15" toJunction="3way_60"/>
<trip id="130" depart="36.101" fromJunction="4way_22" toJunction="3way_1"/>
<trip id="131" depart="36.3787" fromJunction="4way_52" toJunction="4way_43"/>
<trip id="132" depart="36.6564" fromJunction="4way_50" toJunction="3way_58"/>
<trip id="133" depart="36.9341" fromJunction="4way_49" toJunction="3way_4"/>
<trip id="134" depart="37.211800000000004" fromJunction="4way_45" toJunction="4way_46"/>
<trip id="135" depart="37.4895" fromJunction="4way_38" toJunction="3way_32"/>
<trip id="136" depart="37.7672" fromJunction="4way_30" toJunction="3way_61"/>
<trip id="137" depart="38.0449" fromJunction="4way_52" toJunction="4way_30"/>
<trip id="138" depart="38.3226" fromJunction="4way_45" toJunction="4way_19"/>
<trip id="139" depart="38.6003" fromJunction="4way_29" toJunction="3way_57"/>
<trip id="140" depart="38.878" fromJunction="3way_1" toJunction="4way_19"/>
<trip id="141" depart="39.1557" fromJunction="3way_31" toJunction="3way_32"/>
<trip id="142" depart="39.4334" fromJunction="4way_41" toJunction="4way_46"/>
<trip id="143" depart="39.7111" fromJunction="4way_27" toJunction="4way_49"/>
<trip id="144" depart="39.9888" fromJunction="3way_31" toJunction="3way_16"/>
<trip id="145" depart="40.2665" fromJunction="3way_55" toJunction="4way_21"/>
<trip id="146" depart="40.544200000000004" fromJunction="3way_61" toJunction="4way_10"/>
<trip id="147" depart="40.8219" fromJunction="4way_37" toJunction="3way_6"/>
<trip id="148" depart="41.0996" fromJunction="4way_38" toJunction="4way_46"/>
<trip id="149" depart="41.3773" fromJunction="4way_44" toJunction="4way_14"/>
<trip id="150" depart="41.655" fromJunction="3way_5" toJunction="3way_40"/>
<trip id="151" depart="41.9327" fromJunction="3way_61" toJunction="4way_9"/>
<trip id="152" depart="42.2104" fromJunction="3way_4" toJunction="3way_23"/>
<trip id="153" depart="42.4881" fromJunction="3way_1" toJunction="4way_20"/>
<trip id="154" depart="42.7658" fromJunction="3way_31" toJunction="4way_44"/>
<trip id="155" depart="43.0435" fromJunction="3way_6" toJunction="3way_5"/>
<trip id="156" depart="43.3212" fromJunction="3way_60" toJunction="4way_43"/>
<trip id="157" depart="43.5989" fromJunction="4way_34" toJunction="4way_17"/>
<trip id="158" depart="43.8766" fromJunction="4way_20" toJunction="4way_37"/>
<trip id="159" depart="44.1543" fromJunction="3way_23" toJunction="3way_58"/>
<trip id="160" depart="44.432" fromJunction="3way_48" toJunction="3way_4"/>
<trip id="161" depart="44.7097" fromJunction="4way_33" toJunction="3way_59"/>
<trip id="162" depart="44.9874" fromJunction="4way_51" toJunction="4way_43"/>
<trip id="163" depart="45.265100000000004" fromJunction="3way_16" toJunction="3way_57"/>
<trip id="164" depart="45.5428" fromJunction="4way_52" toJunction="3way_47"/>
<trip id="165" depart="45.8205" fromJunction="4way_51" toJunction="3way_4"/>
<trip id="166" depart="46.0982" fromJunction="3way_16" toJunction="3way_59"/>
<trip id="167" depart="46.3759" fromJunction="3way_58" toJunction="4way_50"/>
<trip id="168" depart="46.6536" fromJunction="3way_55" toJunction="3way_16"/>
<trip id="169" depart="46.9313" fromJunction="3way_3" toJunction="4way_33"/>
<trip id="170" depart="47.209" fromJunction="3way_5" toJunction="4way_52"/>
<trip id="171" depart="47.4867" fromJunction="3way_48" toJunction="4way_18"/>
<trip id="172" depart="47.7644" fromJunction="4way_38" toJunction="4way_42"/>
<trip id="173" depart="48.0421" fromJunction="3way_3" toJunction="4way_27"/>
<trip id="174" depart="48.3198" fromJunction="4way_10" toJunction="4way_17"/>
<trip id="175" depart="48.597500000000004" fromJunction="4way_43" toJunction="4way_26"/>
<trip id="176" depart="48.8752" fromJunction="3way_23" toJunction="3way_58"/>
<trip id="177" depart="49.1529" fromJunction="4way_38" toJunction="3way_8"/>
<trip id="178" depart="49.4306" fromJunction="4way_14" toJunction="3way_55"/>
<trip id="179" depart="49.7083" fromJunction="4way_33" toJunction="4way_26"/>
<trip id="180" depart="49.986" fromJunction="4way_33" toJunction="4way_45"/>
<trip id="181" depart="50.2637" fromJunction="3way_8" toJunction="4way_20"/>
<trip id="182" depart="50.5414" fromJunction="4way_51" toJunction="4way_14"/>
<trip id="183" depart="50.8191" fromJunction="3way_40" toJunction="4way_51"/>
<trip id="184" depart="51.0968" fromJunction="4way_27" toJunction="4way_36"/>
<trip id="185" depart="51.3745" fromJunction="3way_39" toJunction="3way_60"/>
<trip id="186" depart="51.6522" fromJunction="4way_38" toJunction="4way_52"/>
<trip id="187" depart="51.9299" fromJunction="4way_50" toJunction="4way_33"/>
<trip id="188" depart="52.2076" fromJunction="4way_33" toJunction="4way_37"/>
<trip id="189" depart="52.4853" fromJunction="4way_42" toJunction="4way_38"/>
<trip id="190" depart="52.763" fromJunction="4way_14" toJunction="4way_21"/>
<trip id="191" depart="53.0407" fromJunction="3way_39" toJunction="4way_13"/>
<trip id="192" depart="53.3184" fromJunction="3way_8" toJunction="4way_19"/>
<trip id="193" depart="53.5961" fromJunction="4way_17" toJunction="3way_4"/>
<trip id="194" depart="53.8738" fromJunction="4way_29" toJunction="3way_59"/>
<trip id="195" depart="54.1515" fromJunction="4way_38" toJunction="3way_2"/>
<trip id="196" depart="54.4292" fromJunction="3way_55" toJunction="3way_1"/>
<trip id="197" depart="54.7069" fromJunction="4way_22" toJunction="4way_9"/>
<trip id="198" depart="54.9846" fromJunction="4way_30" toJunction="3way_6"/>
<trip id="199" depart="55.2623" fromJunction="4way_33" toJunction="4way_45"/>
<trip id="200" depart="55.54" fromJunction="3way_61" toJunction="3way_40"/>
<trip id="201" depart="55.8177" fromJunction="3way_2" toJunction="4way_11"/>
<trip id="202" depart="56.0954" fromJunction="4way_17" toJunction="3way_1"/>
<trip id="203" depart="56.3731" fromJunction="3way_59" toJunction="3way_5"/>
<trip id="204" depart="56.650800000000004" fromJunction="3way_59" toJunction="3way_61"/>
<trip id="205" depart="56.9285" fromJunction="3way_1" toJunction="3way_23"/>
<trip id="206" depart="57.2062" fromJunction="4way_19" toJunction="3way_15"/>
<trip id="207" depart="57.4839" fromJunction="4way_54" toJunction="4way_46"/>
<trip id="208" depart="57.7616" fromJunction="3way_39" toJunction="4way_9"/>
<trip id="209" depart="58.0393" fromJunction="4way_49" toJunction="4way_27"/>
<trip id="210" depart="58.317" fromJunction="3way_4" toJunction="4way_54"/>
<trip id="211" depart="58.5947" fromJunction="3way_57" toJunction="4way_44"/>
<trip id="212" depart="58.8724" fromJunction="4way_35" toJunction="3way_60"/>
<trip id="213" depart="59.1501" fromJunction="4way_35" toJunction="3way_60"/>
<trip id="214" depart="59.4278" fromJunction="4way_17" toJunction="4way_18"/>
<trip id="215" depart="59.7055" fromJunction="3way_57" toJunction="4way_34"/>
<trip id="216" depart="59.983200000000004" fromJunction="4way_9" toJunction="4way_12"/>
<trip id="217" depart="60.2609" fromJunction="4way_21" toJunction="3way_24"/>
<trip id="218" depart="60.5386" fromJunction="3way_3" toJunction="4way_22"/>
<trip id="219" depart="60.8163" fromJunction="3way_32" toJunction="3way_61"/>
<trip id="220" depart="61.094" fromJunction="4way_54" toJunction="4way_13"/>
<trip id="221" depart="61.3717" fromJunction="4way_14" toJunction="4way_46"/>
<trip id="222" depart="61.6494" fromJunction="4way_54" toJunction="3way_57"/>
<trip id="223" depart="61.9271" fromJunction="3way_15" toJunction="3way_60"/>
<trip id="224" depart="62.2048" fromJunction="3way_60" toJunction="4way_38"/>
<trip id="225" depart="62.4825" fromJunction="3way_4" toJunction="4way_51"/>
<trip id="226" depart="62.7602" fromJunction="4way_45" toJunction="4way_20"/>
<trip id="227" depart="63.0379" fromJunction="3way_16" toJunction="3way_58"/>
<trip id="228" depart="63.3156" fromJunction="4way_28" toJunction="3way_16"/>
<trip id="229" depart="63.5933" fromJunction="3way_47" toJunction="3way_60"/>
<trip id="230" depart="63.871" fromJunction="3way_48" toJunction="4way_25"/>
<trip id="231" depart="64.1487" fromJunction="3way_60" toJunction="4way_29"/>
<trip id="232" depart="64.4264" fromJunction="4way_30" toJunction="4way_10"/>
<trip id="233" depart="64.7041" fromJunction="4way_45" toJunction="4way_27"/>
<trip id="234" depart="64.9818" fromJunction="4way_36" toJunction="4way_30"/>
<trip id="235" depart="65.2595" fromJunction="4way_46" toJunction="4way_51"/>
<trip id="236" depart="65.5372" fromJunction="4way_33" toJunction="4way_54"/>
<trip id="237" depart="65.8149" fromJunction="3way_57" toJunction="3way_5"/>
<trip id="238" depart="66.0926" fromJunction="4way_17" toJunction="3way_39"/>
<trip id="239" depart="66.3703" fromJunction="4way_11" toJunction="3way_23"/>
<trip id="240" depart="66.648" fromJunction="4way_53" toJunction="3way_16"/>
<trip id="241" depart="66.9257" fromJunction="4way_26" toJunction="4way_46"/>
<trip id="242" depart="67.2034" fromJunction="4way_50" toJunction="3way_58"/>
<trip id="243" depart="67.4811" fromJunction="4way_9" toJunction="4way_53"/>
<trip id="244" depart="67.7588" fromJunction="3way_58" toJunction="4way_34"/>
<trip id="245" depart="68.0365" fromJunction="4way_9" toJunction="4way_33"/>
<trip id="246" depart="68.3142" fromJunction="4way_10" toJunction="3way_60"/>
<trip id="247" depart="68.5919" fromJunction="3way_16" toJunction="3way_48"/>
<trip id="248" depart="68.8696" fromJunction="4way_36" toJunction="4way_18"/>
<trip id="249" depart="69.1473" fromJunction="4way_22" toJunction="3way_32"/>
<trip id="250" depart="69.425" fromJunction="3way_3" toJunction="4way_37"/>
<trip id="251" depart="69.70270000000001" fromJunction="4way_25" toJunction="3way_59"/>
<trip id="252" depart="69.9804" fromJunction="3way_32" toJunction="3way_15"/>
<trip id="253" depart="70.2581" fromJunction="4way_43" toJunction="4way_28"/>
<trip id="254" depart="70.5358" fromJunction="4way_12" toJunction="4way_19"/>
<trip id="255" depart="70.8135" fromJunction="3way_32" toJunction="3way_62"/>
<trip id="256" depart="71.0912" fromJunction="4way_45" toJunction="4way_43"/>
<trip id="257" depart="71.3689" fromJunction="3way_58" toJunction="4way_26"/>
<trip id="258" depart="71.6466" fromJunction="4way_12" toJunction="3way_2"/>
<trip id="259" depart="71.9243" fromJunction="3way_16" toJunction="3way_1"/>
<trip id="260" depart="72.202" fromJunction="4way_22" toJunction="4way_18"/>
<trip id="261" depart="72.4797" fromJunction="4way_9" toJunction="3way_6"/>
<trip id="262" depart="72.7574" fromJunction="3way_32" toJunction="3way_2"/>
<trip id="263" depart="73.0351" fromJunction="3way_58" toJunction="4way_19"/>
<trip id="264" depart="73.3128" fromJunction="3way_15" toJunction="3way_62"/>
<trip id="265" depart="73.5905" fromJunction="4way_51" toJunction="4way_42"/>
<trip id="266" depart="73.8682" fromJunction="4way_30" toJunction="4way_43"/>
<trip id="267" depart="74.1459" fromJunction="4way_27" toJunction="3way_1"/>
<trip id="268" depart="74.42360000000001" fromJunction="4way_50" toJunction="4way_11"/>
<trip id="269" depart="74.7013" fromJunction="3way_2" toJunction="4way_38"/>
<trip id="270" depart="74.979" fromJunction="4way_13" toJunction="4way_51"/>
<trip id="271" depart="75.2567" fromJunction="3way_32" toJunction="4way_10"/>
<trip id="272" depart="75.5344" fromJunction="3way_6" toJunction="4way_52"/>
<trip id="273" depart="75.8121" fromJunction="4way_18" toJunction="4way_25"/>
<trip id="274" depart="76.0898" fromJunction="3way_6" toJunction="4way_51"/>
<trip id="275" depart="76.3675" fromJunction="4way_9" toJunction="3way_61"/>
<trip id="276" depart="76.6452" fromJunction="4way_53" toJunction="4way_19"/>
<trip id="277" depart="76.9229" fromJunction="3way_31" toJunction="4way_19"/>
<trip id="278" depart="77.2006" fromJunction="4way_45" toJunction="4way_46"/>
<trip id="279" depart="77.4783" fromJunction="4way_22" toJunction="4way_10"/>
<trip id="280" depart="77.756" fromJunction="4way_22" toJunction="4way_26"/>
<trip id="281" depart="78.0337" fromJunction="4way_46" toJunction="4way_21"/>
<trip id="282" depart="78.3114" fromJunction="3way_3" toJunction="4way_22"/>
<trip id="283" depart="78.5891" fromJunction="3way_8" toJunction="3way_47"/>
<trip id="284" depart="78.8668" fromJunction="3way_48" toJunction="4way_38"/>
<trip id="285" depart="79.1445" fromJunction="4way_53" toJunction="3way_39"/>
<trip id="286" depart="79.4222" fromJunction="4way_14" toJunction="4way_25"/>
<trip id="287" depart="79.6999" fromJunction="4way_35" toJunction="3way_39"/>
<trip id="288" depart="79.9776" fromJunction="3way_5" toJunction="4way_25"/>
<trip id="289" depart="80.2553" fromJunction="3way_60" toJunction="4way_51"/>
<trip id="290" depart="80.533" fromJunction="3way_4" toJunction="3way_3"/>
<trip id="291" depart="80.8107" fromJunction="4way_14" toJunction="3way_4"/>
<trip id="292" depart="81.08840000000001" fromJunction="4way_53" toJunction="4way_28"/>
<trip id="293" depart="81.3661" fromJunction="4way_18" toJunction="4way_43"/>
<trip id="294" depart="81.6438" fromJunction="4way_54" toJunction="3way_48"/>
<trip id="295" depart="81.9215" fromJunction="4way_41" toJunction="3way_24"/>
<trip id="296" depart="82.1992" fromJunction="4way_46" toJunction="3way_16"/>
<trip id="297" depart="82.4769" fromJunction="3way_40" toJunction="3way_47"/>
<trip id="298" depart="82.7546" fromJunction="3way_4" toJunction="4way_43"/>
<trip id="299" depart="83.0323" fromJunction="4way_41" toJunction="4way_11"/>
<trip id="300" depart="83.31" fromJunction="3way_60" toJunction="3way_57"/>
<trip id="301" depart="83.5877" fromJunction="3way_16" toJunction="4way_10"/>
<trip id="302" depart="83.8654" fromJunction="3way_32" toJunction="4way_33"/>
<trip id="303" depart="84.1431" fromJunction="3way_31" toJunction="4way_46"/>
<trip id="304" depart="84.4208" fromJunction="3way_32" toJunction="3way_6"/>
<trip id="305" depart="84.6985" fromJunction="4way_35" toJunction="4way_50"/>
<trip id="306" depart="84.9762" fromJunction="4way_54" toJunction="3way_8"/>
<trip id="307" depart="85.2539" fromJunction="4way_20" toJunction="3way_24"/>
<trip id="308" depart="85.5316" fromJunction="4way_13" toJunction="4way_27"/>
<trip id="309" depart="85.80930000000001" fromJunction="4way_53" toJunction="4way_46"/>
<trip id="310" depart="86.087" fromJunction="4way_51" toJunction="4way_36"/>
<trip id="311" depart="86.3647" fromJunction="3way_31" toJunction="3way_32"/>
<trip id="312" depart="86.6424" fromJunction="3way_60" toJunction="3way_4"/>
<trip id="313" depart="86.9201" fromJunction="4way_18" toJunction="4way_17"/>
<trip id="314" depart="87.1978" fromJunction="4way_38" toJunction="4way_44"/>
<trip id="315" depart="87.4755" fromJunction="3way_15" toJunction="3way_23"/>
<trip id="316" depart="87.7532" fromJunction="4way_28" toJunction="4way_50"/>
<trip id="317" depart="88.0309" fromJunction="4way_30" toJunction="4way_29"/>
<trip id="318" depart="88.3086" fromJunction="3way_8" toJunction="4way_54"/>
<trip id="319" depart="88.5863" fromJunction="3way_31" toJunction="3way_16"/>
<trip id="320" depart="88.864" fromJunction="4way_35" toJunction="4way_51"/>
<trip id="321" depart="89.1417" fromJunction="3way_6" toJunction="4way_37"/>
<trip id="322" depart="89.4194" fromJunction="4way_42" toJunction="4way_49"/>
<trip id="323" depart="89.6971" fromJunction="3way_47" toJunction="3way_60"/>
<trip id="324" depart="89.9748" fromJunction="3way_4" toJunction="4way_37"/>
<trip id="325" depart="90.2525" fromJunction="3way_15" toJunction="4way_41"/>
<trip id="326" depart="90.53020000000001" fromJunction="4way_46" toJunction="4way_33"/>
<trip id="327" depart="90.8079" fromJunction="4way_37" toJunction="4way_17"/>
<trip id="328" depart="91.0856" fromJunction="3way_58" toJunction="3way_23"/>
<trip id="329" depart="91.3633" fromJunction="3way_8" toJunction="4way_9"/>
<trip id="330" depart="91.641" fromJunction="3way_32" toJunction="4way_43"/>
<trip id="331" depart="91.9187" fromJunction="4way_27" toJunction="4way_12"/>
<trip id="332" depart="92.1964" fromJunction="4way_17" toJunction="3way_8"/>
<trip id="333" depart="92.4741" fromJunction="3way_5" toJunction="4way_11"/>
<trip id="334" depart="92.7518" fromJunction="4way_35" toJunction="4way_21"/>
<trip id="335" depart="93.0295" fromJunction="4way_26" toJunction="4way_20"/>
<trip id="336" depart="93.3072" fromJunction="4way_9" toJunction="3way_15"/>
<trip id="337" depart="93.5849" fromJunction="3way_40" toJunction="4way_9"/>
<trip id="338" depart="93.8626" fromJunction="4way_28" toJunction="3way_2"/>
<trip id="339" depart="94.1403" fromJunction="4way_11" toJunction="3way_15"/>
<trip id="340" depart="94.418" fromJunction="4way_27" toJunction="4way_12"/>
<trip id="341" depart="94.6957" fromJunction="3way_15" toJunction="4way_38"/>
<trip id="342" depart="94.9734" fromJunction="3way_2" toJunction="4way_45"/>
<trip id="343" depart="95.2511" fromJunction="4way_9" toJunction="4way_26"/>
<trip id="344" depart="95.5288" fromJunction="3way_24" toJunction="4way_18"/>
<trip id="345" depart="95.8065" fromJunction="3way_2" toJunction="3way_55"/>
<trip id="346" depart="96.0842" fromJunction="4way_29" toJunction="4way_18"/>
<trip id="347" depart="96.3619" fromJunction="3way_61" toJunction="3way_16"/>
<trip id="348" depart="96.6396" fromJunction="3way_6" toJunction="3way_5"/>
<trip id="349" depart="96.9173" fromJunction="3way_15" toJunction="3way_61"/>
<trip id="350" depart="97.19500000000001" fromJunction="3way_4" toJunction="3way_59"/>
<trip id="351" depart="97.4727" fromJunction="4way_37" toJunction="3way_4"/>
<trip id="352" depart="97.7504" fromJunction="4way_34" toJunction="3way_39"/>
<trip id="353" depart="98.0281" fromJunction="4way_33" toJunction="4way_44"/>
<trip id="354" depart="98.3058" fromJunction="3way_55" toJunction="3way_39"/>
<trip id="355" depart="98.5835" fromJunction="4way_18" toJunction="4way_17"/>
<trip id="356" depart="98.8612" fromJunction="4way_44" toJunction="3way_32"/>
<trip id="357" depart="99.1389" fromJunction="4way_22" toJunction="4way_36"/>
<trip id="358" depart="99.4166" fromJunction="4way_53" toJunction="3way_2"/>
<trip id="359" depart="99.6943" fromJunction="4way_45" toJunction="3way_8"/>
<trip id="360" depart="99.972" fromJunction="4way_54" toJunction="4way_51"/>
<trip id="361" depart="100.2497" fromJunction="3way_24" toJunction="4way_36"/>
<trip id="362" depart="100.5274" fromJunction="3way_16" toJunction="4way_10"/>
<trip id="363" depart="100.8051" fromJunction="3way_59" toJunction="3way_24"/>
<trip id="364" depart="101.0828" fromJunction="4way_43" toJunction="4way_49"/>
<trip id="365" depart="101.3605" fromJunction="4way_18" toJunction="3way_58"/>
<trip id="366" depart="101.6382" fromJunction="3way_39" toJunction="3way_23"/>
<trip id="367" depart="101.91590000000001" fromJunction="4way_46" toJunction="3way_3"/>
<trip id="368" depart="102.1936" fromJunction="3way_47" toJunction="3way_1"/>
<trip id="369" depart="102.4713" fromJunction="3way_5" toJunction="4way_11"/>
<trip id="370" depart="102.749" fromJunction="4way_20" toJunction="4way_45"/>
<trip id="371" depart="103.0267" fromJunction="4way_10" toJunction="4way_38"/>
<trip id="372" depart="103.3044" fromJunction="4way_26" toJunction="3way_48"/>
<trip id="373" depart="103.5821" fromJunction="4way_18" toJunction="4way_22"/>
<trip id="374" depart="103.8598" fromJunction="4way_45" toJunction="3way_58"/>
<trip id="375" depart="104.1375" fromJunction="3way_1" toJunction="3way_16"/>
<trip id="376" depart="104.4152" fromJunction="3way_40" toJunction="3way_60"/>
<trip id="377" depart="104.6929" fromJunction="4way_33" toJunction="4way_37"/>
<trip id="378" depart="104.9706" fromJunction="3way_32" toJunction="4way_25"/>
<trip id="379" depart="105.2483" fromJunction="4way_30" toJunction="4way_45"/>
<trip id="380" depart="105.526" fromJunction="3way_16" toJunction="4way_54"/>
<trip id="381" depart="105.8037" fromJunction="4way_52" toJunction="4way_38"/>
<trip id="382" depart="106.0814" fromJunction="3way_60" toJunction="4way_43"/>