<routes xmlns:xsi="http://www.w3.org/2001/XMLSchema-instance" xsi:noNamespaceSchemaLocation="http://sumo.dlr.de/xsd/routes_file.xsd">
<trip id="0" depart="0.0" fromJunction="4way_20" toJunction="4way_13"/>
<trip id="1" depart="1.6666" fromJunction="4way_13" toJunction="4way_25"/>
<trip id="2" depart="3.3332" fromJunction="4way_8" toJunction="3way_18"/>
<trip id="3" depart="4.9998000000000005" fromJunction="4way_10" toJunction="3way_12"/>
<trip id="4" depart="6.6664" fromJunction="3way_24" toJunction="4way_22"/>
<trip id="5" depart="8.333" fromJunction="4way_7" toJunction="4way_15"/>
<trip id="6" depart="9.999600000000001" fromJunction="4way_16" toJunction="4way_19"/>
<trip id="7" depart="11.6662" fromJunction="4way_21" toJunction="3way_1"/>
<trip id="8" depart="13.3328" fromJunction="4way_27" toJunction="4way_9"/>
<trip id="9" depart="14.999400000000001" fromJunction="4way_15" toJunction="4way_28"/>
<trip id="10" depart="16.666" fromJunction="4way_9" toJunction="3way_12"/>
<trip id="11" depart="18.3326" fromJunction="4way_8" toJunction="3way_4"/>
<trip id="12" depart="19.999200000000002" fromJunction="4way_22" toJunction="3way_11"/>
<trip id="13" depart="21.6658" fromJunction="3way_18" toJunction="4way_7"/>
<trip id="14" depart="23.3324" fromJunction="4way_9" toJunction="3way_34"/>
<trip id="15" depart="24.999000000000002" fromJunction="4way_19" toJunction="3way_12"/>
<trip id="16" depart="26.6656" fromJunction="4way_25" toJunction="3way_1"/>
<trip id="17" depart="28.3322" fromJunction="4way_14" toJunction="4way_22"/>
<trip id="18" depart="29.998800000000003" fromJunction="3way_18" toJunction="3way_31"/>
<trip id="19" depart="31.6654" fromJunction="3way_2" toJunction="4way_20"/>
<trip id="20" depart="33.332" fromJunction="3way_11" toJunction="3way_23"/>
<trip id="21" depart="34.9986" fromJunction="3way_31" toJunction="3way_32"/>
<trip id="22" depart="36.6652" fromJunction="3way_12" toJunction="4way_19"/>
<trip id="23" depart="38.3318" fromJunction="3way_4" toJunction="4way_28"/>
<trip id="24" depart="39.998400000000004" fromJunction="3way_17" toJunction="3way_23"/>
<trip id="25" depart="41.665" fromJunction="3way_34" toJunction="4way_8"/>
<trip id="26" depart="43.3316" fromJunction="3way_29" toJunction="3way_12"/>
<trip id="27" depart="44.998200000000004" fromJunction="3way_4" toJunction="3way_17"/>
<trip id="28" depart="46.6648" fromJunction="3way_11" toJunction="4way_14"/>
<trip id="29" depart="48.3314" fromJunction="3way_31" toJunction="3way_23"/>
<trip id="30" depart="49.998000000000005" fromJunction="3way_4" toJunction="4way_21"/>
<trip id="31" depart="51.6646" fromJunction="3way_4" toJunction="4way_21"/>
<trip id="32" depart="53.3312" fromJunction="3way_12" toJunction="4way_28"/>
<trip id="33" depart="54.997800000000005" fromJunction="4way_25" toJunction="4way_28"/>
<trip id="34" depart="56.6644" fromJunction="3way_2" toJunction="4way_26"/>
<trip id="35" depart="58.331" fromJunction="3way_4" toJunction="3way_33"/>
<trip id="36" depart="59.997600000000006" fromJunction="3way_4" toJunction="3way_33"/>
<trip id="37" depart="61.6642" fromJunction="3way_18" toJunction="3way_32"/>
<trip id="38" depart="63.3308" fromJunction="4way_20" toJunction="3way_3"/>
<trip id="39" depart="64.9974" fromJunction="3way_34" toJunction="4way_19"/>
<trip id="40" depart="66.664" fromJunction="3way_4" toJunction="4way_7"/>
<trip id="41" depart="68.3306" fromJunction="4way_16" toJunction="4way_19"/>
<trip id="42" depart="69.9972" fromJunction="4way_14" toJunction="3way_32"/>
<trip id="43" depart="71.66380000000001" fromJunction="4way_20" toJunction="3way_11"/>
<trip id="44" depart="73.3304" fromJunction="3way_17" toJunction="3way_33"/>
<trip id="45" depart="74.997" fromJunction="3way_1" toJunction="4way_19"/>
<trip id="46" depart="76.6636" fromJunction="3way_1" toJunction="4way_21"/>
<trip id="47" depart="78.3302" fromJunction="3way_34" toJunction="4way_14"/>
<trip id="48" depart="79.99680000000001" fromJunction="4way_22" toJunction="4way_26"/>
<trip id="49" depart="81.66340000000001" fromJunction="4way_19" toJunction="3way_29"/>
<trip id="50" depart="83.33" fromJunction="4way_22" toJunction="3way_29"/>
<trip id="51" depart="84.9966" fromJunction="4way_27" toJunction="3way_12"/>
<trip id="52" depart="86.6632" fromJunction="3way_33" toJunction="4way_20"/>
<trip id="53" depart="88.3298" fromJunction="3way_24" toJunction="4way_21"/>
<trip id="54" depart="89.99640000000001" fromJunction="4way_19" toJunction="4way_10"/>
<trip id="55" depart="91.66300000000001" fromJunction="4way_20" toJunction="4way_10"/>
<trip id="56" depart="93.3296" fromJunction="4way_7" toJunction="4way_26"/>
<trip id="57" depart="94.9962" fromJunction="4way_8" toJunction="4way_22"/>
<trip id="58" depart="96.6628" fromJunction="4way_25" toJunction="3way_18"/>
<trip id="59" depart="98.3294" fromJunction="3way_33" toJunction="3way_1"/>
<trip id="60" depart="99.99600000000001" fromJunction="3way_33" toJunction="4way_14"/>
<trip id="61" depart="101.66260000000001" fromJunction="3way_18" toJunction="4way_25"/>
<trip id="62" depart="103.3292" fromJunction="3way_33" toJunction="3way_11"/>
<trip id="63" depart="104.9958" fromJunction="4way_8" toJunction="4way_19"/>
<trip id="64" depart="106.6624" fromJunction="3way_18" toJunction="4way_8"/>
<trip id="65" depart="108.32900000000001" fromJunction="3way_31" toJunction="4way_10"/>
<trip id="66" depart="109.99560000000001" fromJunction="4way_10" toJunction="3way_18"/>
<trip id="67" depart="111.6622" fromJunction="4way_20" toJunction="4way_15"/>
<trip id="68" depart="113.3288" fromJunction="4way_16" toJunction="3way_4"/>
<trip id="69" depart="114.9954" fromJunction="4way_28" toJunction="4way_20"/>
<trip id="70" depart="116.662" fromJunction="4way_27" toJunction="3way_11"/>
<trip id="71" depart="118.32860000000001" fromJunction="4way_25" toJunction="3way_17"/>
<trip id="72" depart="119.99520000000001" fromJunction="4way_27" toJunction="3way_4"/>
<trip id="73" depart="121.6618" fromJunction="4way_19" toJunction="4way_15"/>
<trip id="74" depart="123.3284" fromJunction="3way_3" toJunction="3way_18"/>
<trip id="75" depart="124.995" fromJunction="3way_12" toJunction="4way_20"/>
<trip id="76" depart="126.6616" fromJunction="4way_27" toJunction="4way_26"/>
<trip id="77" depart="128.3282" fromJunction="4way_27" toJunction="4way_28"/>
<trip id="78" depart="129.9948" fromJunction="3way_31" toJunction="3way_1"/>
<trip id="79" depart="131.66140000000001" fromJunction="3way_17" toJunction="4way_26"/>
<trip id="80" depart="133.328" fromJunction="3way_2" toJunction="4way_7"/>
<trip id="81" depart="134.99460000000002" fromJunction="3way_1" toJunction="3way_23"/>
<trip id="82" depart="136.6612" fromJunction="3way_29" toJunction="4way_15"/>
<trip id="83" depart="138.3278" fromJunction="4way_16" toJunction="3way_31"/>
<trip id="84" depart="139.9944" fromJunction="3way_2" toJunction="4way_20"/>
<trip id="85" depart="141.661" fromJunction="4way_25" toJunction="3way_17"/>
<trip id="86" depart="143.32760000000002" fromJunction="3way_29" toJunction="4way_19"/>
<trip id="87" depart="144.9942" fromJunction="4way_25" toJunction="4way_16"/>
<trip id="88" depart="146.6608" fromJunction="4way_19" toJunction="4way_13"/>
<trip id="89" depart="148.3274" fromJunction="3way_33" toJunction="4way_26"/>
<trip id="90" depart="149.994" fromJunction="3way_23" toJunction="3way_24"/>
<trip id="91" depart="151.66060000000002" fromJunction="4way_22" toJunction="3way_17"/>
<trip id="92" depart="153.3272" fromJunction="3way_6" toJunction="4way_26"/>
<trip id="93" depart="154.99380000000002" fromJunction="3way_34" toJunction="3way_29"/>
<trip id="94" depart="156.6604" fromJunction="3way_18" toJunction="3way_2"/>
<trip id="95" depart="158.327" fromJunction="4way_20" toJunction="3way_33"/>
<trip id="96" depart="159.99360000000001" fromJunction="3way_17" toJunction="3way_24"/>
<trip id="97" depart="161.6602" fromJunction="3way_3" toJunction="3way_1"/>
<trip id="98" depart="163.32680000000002" fromJunction="3way_12" toJunction="4way_14"/>
<trip id="99" depart="164.9934" fromJunction="4way_10" toJunction="4way_13"/>
<trip id="100" depart="166.66" fromJunction="3way_23" toJunction="4way_28"/>
<trip id="101" depart="168.3266" fromJunction="3way_34" toJunction="4way_14"/>
<trip id="102" depart="169.9932" fromJunction="4way_9" toJunction="3way_1"/>
<trip id="103" depart="171.65980000000002" fromJunction="3way_24" toJunction="3way_32"/>
<trip id="104" depart="173.3264" fromJunction="4way_21" toJunction="4way_19"/>
<trip id="105" depart="174.993" fromJunction="4way_27" toJunction="4way_8"/>
<trip id="106" depart="176.6596" fromJunction="4way_15" toJunction="3way_34"/>
<trip id="107" depart="178.3262" fromJunction="4way_22" toJunction="3way_17"/>
<trip id="108" depart="179.99280000000002" fromJunction="3way_23" toJunction="4way_14"/>
<trip id="109" depart="181.6594" fromJunction="4way_26" toJunction="4way_22"/>
<trip id="110" depart="183.32600000000002" fromJunction="3way_23" toJunction="3way_34"/>
<trip id="111" depart="184.9926" fromJunction="3way_1" toJunction="4way_7"/>
<trip id="112" depart="186.6592" fromJunction="3way_18" toJunction="3way_23"/>
<trip id="113" depart="188.32580000000002" fromJunction="3way_12" toJunction="3way_31"/>
<trip id="114" depart="189.9924" fromJunction="4way_19" toJunction="3way_34"/>
<trip id="115" depart="191.65900000000002" fromJunction="3way_4" toJunction="4way_27"/>
<trip id="116" depart="193.3256" fromJunction="3way_11" toJunction="4way_7"/>
<trip id="117" depart="194.9922" fromJunction="3way_24" toJunction="4way_20"/>
<trip id="118" depart="196.6588" fromJunction="3way_17" toJunction="4way_19"/>
<trip id="119" depart="198.3254" fromJunction="3way_6" toJunction="3way_11"/>
<trip id="120" depart="199.99200000000002" fromJunction="4way_22" toJunction="3way_31"/>
<trip id="121" depart="201.6586" fromJunction="4way_26" toJunction="4way_9"/>
<trip id="122" depart="203.32520000000002" fromJunction="3way_3" toJunction="4way_10"/>
<trip id="123" depart="204.9918" fromJunction="4way_19" toJunction="4way_13"/>
<trip id="124" depart="206.6584" fromJunction="3way_33" toJunction="4way_22"/>
<trip id="125" depart="208.32500000000002" fromJunction="3way_4" toJunction="3way_29"/>
<trip id="126" depart="209.9916" fromJunction="4way_16" toJunction="3way_1"/>
<trip id="127" depart="211.65820000000002" fromJunction="4way_15" toJunction="4way_14"/>
<trip id="128" depart="213.3248" fromJunction="4way_19" toJunction="3way_33"/>
<trip id="129" depart="214.9914" fromJunction="3way_6" toJunction="3way_3"/>
<trip id="130" depart="216.65800000000002" fromJunction="4way_10" toJunction="4way_28"/>
<trip id="131" depart="218.3246" fromJunction="4way_22" toJunction="3way_32"/>
<trip id="132" depart="219.99120000000002" fromJunction="4way_22" toJunction="3way_29"/>
<trip id="133" depart="221.6578" fromJunction="4way_15" toJunction="4way_22"/>
<trip id="134" depart="223.3244" fromJunction="4way_27" toJunction="4way_8"/>
<trip id="135" depart="224.991" fromJunction="4way_27" toJunction="3way_33"/>
<trip id="136" depart="226.6576" fromJunction="3way_1" toJunction="4way_25"/>
<trip id="137" depart="228.32420000000002" fromJunction="3way_11" toJunction="3way_31"/>
<trip id="138" depart="229.9908" fromJunction="3way_6" toJunction="4way_28"/>
<trip id="139" depart="231.65740000000002" fromJunction="4way_8" toJunction="3way_6"/>
<trip id="140" depart="233.324" fromJunction="3way_11" toJunction="3way_31"/>
<trip id="141" depart="234.9906" fromJunction="3way_23" toJunction="4way_21"/>
<trip id="142" depart="236.65720000000002" fromJunction="3way_29" toJunction="4way_7"/>
<trip id="143" depart="238.3238" fromJunction="4way_27" toJunction="3way_4"/>
<trip id="144" depart="239.99040000000002" fromJunction="4way_22" toJunction="4way_28"/>
<trip id="145" depart="241.657" fromJunction="4way_9" toJunction="4way_16"/>
<trip id="146" depart="243.3236" fromJunction="3way_3" toJunction="3way_32"/>
<trip id="147" depart="244.99020000000002" fromJunction="3way_29" toJunction="3way_18"/>
<trip id="148" depart="246.6568" fromJunction="3way_2" toJunction="3way_11"/>
<trip id="149" depart="248.32340000000002" fromJunction="3way_1" toJunction="4way_26"/>
<trip id="150" depart="249.99" fromJunction="3way_11" toJunction="4way_9"/>
<trip id="151" depart="251.65660000000003" fromJunction="3way_29" toJunction="4way_14"/>
<trip id="152" depart="253.3232" fromJunction="4way_13" toJunction="3way_18"/>
<trip id="153" depart="254.9898" fromJunction="4way_26" toJunction="4way_27"/>
<trip id="154" depart="256.6564" fromJunction="3way_11" toJunction="3way_34"/>
<trip id="155" depart="258.32300000000004" fromJunction="3way_33" toJunction="3way_2"/>
<trip id="156" depart="259.9896" fromJunction="3way_12" toJunction="3way_34"/>
<trip id="157" depart="261.6562" fromJunction="4way_20" toJunction="4way_14"/>
<trip id="158" depart="263.32280000000003" fromJunction="3way_24" toJunction="3way_33"/>
<trip id="159" depart="264.9894" fromJunction="4way_15" toJunction="3way_17"/>
<trip id="160" depart="266.656" fromJunction="4way_20" toJunction="3way_2"/>
<trip id="161" depart="268.3226" fromJunction="3way_31" toJunction="3way_34"/>
<trip id="162" depart="269.98920000000004" fromJunction="3way_34" toJunction="4way_19"/>
<trip id="163" depart="271.6558" fromJunction="3way_23" toJunction="3way_31"/>
<trip id="164" depart="273.3224" fromJunction="3way_2" toJunction="3way_12"/>
<trip id="165" depart="274.98900000000003" fromJunction="3way_3" toJunction="4way_15"/>
<trip id="166" depart="276.6556" fromJunction="3way_33" toJunction="4way_7"/>
<trip id="167" depart="278.3222" fromJunction="4way_22" toJunction="4way_19"/>
<trip id="168" depart="279.9888" fromJunction="3way_2" toJunction="4way_8"/>
<trip id="169" depart="281.6554" fromJunction="4way_7" toJunction="3way_18"/>
<trip id="170" depart="283.322" fromJunction="4way_14" toJunction="4way_13"/>
<trip id="171" depart="284.9886" fromJunction="3way_11" toJunction="3way_34"/>
<trip id="172" depart="286.65520000000004" fromJunction="4way_22" toJunction="3way_24"/>
<trip id="173" depart="288.3218" fromJunction="4way_10" toJunction="3way_17"/>
<trip id="174" depart="289.9884" fromJunction="3way_12" toJunction="4way_13"/>
<trip id="175" depart="291.65500000000003" fromJunction="3way_12" toJunction="4way_10"/>
<trip id="176" depart="293.3216" fromJunction="3way_24" toJunction="4way_26"/>
<trip id="177" depart="294.9882" fromJunction="4way_20" toJunction="4way_10"/>
<trip id="178" depart="296.6548" fromJunction="3way_32" toJunction="4way_20"/>
<trip id="179" depart="298.32140000000004" fromJunction="4way_8" toJunction="4way_9"/>
<trip id="180" depart="299.988" fromJunction="3way_17" toJunction="3way_29"/>
<trip id="181" depart="301.6546" fromJunction="4way_22" toJunction="4way_15"/>
<trip id="182" depart="303.32120000000003" fromJunction="4way_19" toJunction="3way_12"/>
<trip id="183" depart="304.9878" fromJunction="3way_12" toJunction="4way_27"/>
<trip id="184" depart="306.6544" fromJunction="4way_19" toJunction="4way_22"/>
<trip id="185" depart="308.321" fromJunction="4way_16" toJunction="4way_21"/>
<trip id="186" depart="309.98760000000004" fromJunction="3way_17" toJunction="4way_21"/>
<trip id="187" depart="311.6542" fromJunction="3way_24" toJunction="4way_8"/>
<trip id="188" depart="313.3208" fromJunction="3way_18" toJunction="3way_3"/>
<trip id="189" depart="314.98740000000004" fromJunction="4way_27" toJunction="3way_34"/>
<trip id="190" depart="316.654" fromJunction="4way_22" toJunction="3way_2"/>
<trip id="191" depart="318.3206" fromJunction="3way_17" toJunction="3way_1"/>
<trip id="192" depart="319.98720000000003" fromJunction="4way_16" toJunction="3way_24"/>
<trip id="193" depart="321.6538" fromJunction="4way_22" toJunction="3way_4"/>
<trip id="194" depart="323.3204" fromJunction="3way_12" toJunction="4way_27"/>
<trip id="195" depart="324.987" fromJunction="3way_29" toJunction="3way_32"/>
<trip id="196" depart="326.65360000000004" fromJunction="3way_2" toJunction="4way_25"/>
<trip id="197" depart="328.3202" fromJunction="3way_18" toJunction="3way_1"/>
<trip id="198" depart="329.9868" fromJunction="3way_34" toJunction="3way_3"/>
<trip id="199" depart="331.65340000000003" fromJunction="3way_34" toJunction="3way_29"/>
<trip id="200" depart="333.32" fromJunction="3way_1" toJunction="3way_11"/>
<trip id="201" depart="334.9866" fromJunction="4way_25" toJunction="3way_4"/>
<trip id="202" depart="336.6532" fromJunction="3way_17" toJunction="3way_18"/>
<trip id="203" depart="338.31980000000004" fromJunction="3way_6" toJunction="4way_8"/>
<trip id="204" depart="339.9864" fromJunction="3way_3" toJunction="4way_28"/>
<trip id="205" depart="341.653" fromJunction="3way_33" toJunction="4way_15"/>
<trip id="206" depart="343.31960000000004" fromJunction="4way_14" toJunction="3way_29"/>
<trip id="207" depart="344.9862" fromJunction="4way_14" toJunction="3way_29"/>
<trip id="208" depart="346.6528" fromJunction="3way_18" toJunction="4way_7"/>
<trip id="209" depart="348.31940000000003" fromJunction="3way_33" toJunction="4way_13"/>
<trip id="210" depart="349.986" fromJunction="3way_18" toJunction="4way_20"/>
<trip id="211" depart="351.6526" fromJunction="4way_21" toJunction="3way_31"/>
<trip id="212" depart="353.3192" fromJunction="3way_2" toJunction="4way_16"/>
<trip id="213" depart="354.98580000000004" fromJunction="3way_31" toJunction="3way_29"/>
<trip id="214" depart="356.6524" fromJunction="4way_28" toJunction="4way_21"/>
<trip id="215" depart="358.319" fromJunction="4way_10" toJunction="4way_28"/>
<trip id="216" depart="359.98560000000003" fromJunction="4way_28" toJunction="3way_33"/>
<trip id="217" depart="361.6522" fromJunction="3way_4" toJunction="3way_29"/>
<trip id="218" depart="363.3188" fromJunction="3way_29" toJunction="4way_22"/>
<trip id="219" depart="364.9854" fromJunction="3way_2" toJunction="4way_20"/>
<trip id="220" depart="366.65200000000004" fromJunction="4way_10" toJunction="4way_26"/>
<trip id="221" depart="368.3186" fromJunction="3way_24" toJunction="3way_34"/>
<trip id="222" depart="369.9852" fromJunction="4way_26" toJunction="3way_31"/>
<trip id="223" depart="371.65180000000004" fromJunction="3way_17" toJunction="3way_29"/>
<trip id="224" depart="373.3184" fromJunction="3way_33" toJunction="3way_12"/>
<trip id="225" depart="374.985" fromJunction="3way_29" toJunction="4way_21"/>
<trip id="226" depart="376.65160000000003" fromJunction="4way_22" toJunction="4way_7"/>
<trip id="227" depart="378.3182" fromJunction="4way_27" toJunction="4way_8"/>
<trip id="228" depart="379.9848" fromJunction="4way_9" toJunction="4way_22"/>
<trip id="229" depart="381.6514" fromJunction="4way_22" toJunction="4way_20"/>
<trip id="230" depart="383.31800000000004" fromJunction="3way_12" toJunction="4way_28"/>
<trip id="231" depart="384.9846" fromJunction="3way_33" toJunction="3way_3"/>
<trip id="232" depart="386.6512" fromJunction="3way_18" toJunction="3way_11"/>
<trip id="233" depart="388.31780000000003" fromJunction="4way_25" toJunction="3way_11"/>
<trip id="234" depart="389.9844" fromJunction="4way_10" toJunction="3way_24"/>
<trip id="235" depart="391.651" fromJunction="4way_13" toJunction="4way_22"/>
<trip id="236" depart="393.3176" fromJunction="4way_19" toJunction="3way_34"/>
<trip id="237" depart="394.98420000000004" fromJunction="3way_18" toJunction="4way_10"/>
<trip id="238" depart="396.6508" fromJunction="3way_34" toJunction="4way_13"/>
<trip id="239" depart="398.3174" fromJunction="3way_24" toJunction="3way_12"/>
<trip id="240" depart="399.98400000000004" fromJunction="4way_7" toJunction="3way_29"/>
<trip id="241" depart="401.6506" fromJunction="3way_31" toJunction="3way_33"/>
<trip id="242" depart="403.3172" fromJunction="4way_9" toJunction="4way_7"/>
<trip id="243" depart="404.98380000000003" fromJunction="4way_16" toJunction="3way_32"/>
<trip id="244" depart="406.65040000000005" fromJunction="3way_2" toJunction="4way_27"/>
<trip id="245" depart="408.317" fromJunction="3way_12" toJunction="3way_34"/>
<trip id="246" depart="409.9836" fromJunction="3way_31" toJunction="3way_4"/>
<trip id="247" depart="411.65020000000004" fromJunction="4way_14" toJunction="4way_26"/>
<trip id="248" depart="413.3168" fromJunction="4way_20" toJunction="4way_25"/>
<trip id="249" depart="414.9834" fromJunction="3way_32" toJunction="3way_23"/>
<trip id="250" depart="416.65000000000003" fromJunction="4way_10" toJunction="4way_14"/>
<trip id="251" depart="418.3166" fromJunction="3way_33" toJunction="4way_13"/>
<trip id="252" depart="419.9832" fromJunction="4way_20" toJunction="3way_1"/>
<trip id="253" depart="421.6498" fromJunction="3way_31" toJunction="3way_1"/>
<trip id="254" depart="423.31640000000004" fromJunction="4way_16" toJunction="4way_7"/>
<trip id="255" depart="424.983" fromJunction="3way_24" toJunction="3way_3"/>
<trip id="256" depart="426.6496" fromJunction="3way_32" toJunction="3way_1"/>
<trip id="257" depart="428.31620000000004" fromJunction="3way_34" toJunction="4way_25"/>
<trip id="258" depart="429.9828" fromJunction="3way_4" toJunction="3way_23"/>
<trip id="259" depart="431.6494" fromJunction="4way_20" toJunction="4way_19"/>
<trip id="260" depart="433.31600000000003" fromJunction="4way_22" toJunction="4way_14"/>
<trip id="261" depart="434.98260000000005" fromJunction="4way_8" toJunction="3way_1"/>
<trip id="262" depart="436.6492" fromJunction="4way_19" toJunction="4way_25"/>
<trip id="263" depart="438.3158" fromJunction="3way_1" toJunction="4way_22"/>
<trip id="264" depart="439.98240000000004" fromJunction="4way_21" toJunction="4way_20"/>
<trip id="265" depart="441.649" fromJunction="3way_32" toJunction="4way_7"/>
<trip id="266" depart="443.3156" fromJunction="3way_4" toJunction="4way_15"/>
<trip id="267" depart="444.98220000000003" fromJunction="4way_7" toJunction="3way_12"/>
<trip id="268" depart="446.6488" fromJunction="3way_3" toJunction="4way_20"/>
<trip id="269" depart="448.3154" fromJunction="3way_18" toJunction="3way_29"/>
<trip id="270" depart="449.982" fromJunction="4way_10" toJunction="4way_25"/>
<trip id="271" depart="451.64860000000004" fromJunction="3way_11" toJunction="4way_25"/>
<trip id="272" depart="453.3152" fromJunction="4way_27" toJunction="4way_28"/>
<trip id="273" depart="454.9818" fromJunction="4way_16" toJunction="4way_7"/>
<trip id="274" depart="456.64840000000004" fromJunction="4way_16" toJunction="4way_13"/>
<trip id="275" depart="458.315" fromJunction="4way_22" toJunction="4way_21"/>
<trip id="276" depart="459.9816" fromJunction="3way_2" toJunction="4way_16"/>
<trip id="277" depart="461.64820000000003" fromJunction="3way_24" toJunction="3way_17"/>
<trip id="278" depart="463.31480000000005" fromJunction="3way_33" toJunction="4way_22"/>
<trip id="279" depart="464.9814" fromJunction="4way_10" toJunction="3way_17"/>
<trip id="280" depart="466.648" fromJunction="4way_16" toJunction="3way_12"/>
<trip id="281" depart="468.31460000000004" fromJunction="4way_14" toJunction="3way_17"/>
<trip id="282" depart="469.9812" fromJunction="3way_3" toJunction="3way_12"/>
<trip id="283" depart="471.6478" fromJunction="3way_29" toJunction="4way_20"/>
<trip id="284" depart="473.31440000000003" fromJunction="4way_16" toJunction="3way_2"/>
<trip id="285" depart="474.98100000000005" fromJunction="4way_10" toJunction="4way_26"/>
<trip id="286" depart="476.6476" fromJunction="4way_7" toJunction="4way_14"/>
<trip id="287" depart="478.3142" fromJunction="4way_28" toJunction="3way_33"/>
<trip id="288" depart="479.98080000000004" fromJunction="3way_6" toJunction="3way_31"/>
<trip id="289" depart="481.6474" fromJunction="4way_28" toJunction="3way_24"/>
<trip id="290" depart="483.314" fromJunction="3way_32" toJunction="3way_17"/>
<trip id="291" depart="484.98060000000004" fromJunction="3way_3" toJunction="4way_14"/>
<trip id="292" depart="486.6472" fromJunction="3way_6" toJunction="4way_25"/>
<trip id="293" depart="488.3138" fromJunction="3way_29" toJunction="3way_33"/>
<trip id="294" depart="489.98040000000003" fromJunction="3way_31" toJunction="4way_7"/>
<trip id="295" depart="491.64700000000005" fromJunction="3way_32" toJunction="3way_12"/>
<trip id="296" depart="493.3136" fromJunction="3way_11" toJunction="4way_28"/>
<trip id="297" depart="494.9802" fromJunction="3way_32" toJunction="3way_4"/>
<trip id="298" depart="496.64680000000004" fromJunction="4way_14" toJunction="4way_19"/>
<trip id="299" depart="498.3134" fromJunction="4way_28" toJunction="3way_24"/>
<trip id="300" depart="499.98" fromJunction="4way_26" toJunction="3way_31"/>
<trip id="301" depart="501.64660000000003" fromJunction="4way_21" toJunction="4way_8"/>
<trip id="302" depart="503.31320000000005" fromJunction="4way_10" toJunction="4way_28"/>
<trip id="303" depart="504.9798" fromJunction="4way_20" toJunction="4way_9"/>
<trip id="304" depart="506.6464" fromJunction="3way_11" toJunction="3way_32"/>
<trip id="305" depart="508.31300000000005" fromJunction="3way_29" toJunction="3way_3"/>
<trip id="306" depart="509.9796" fromJunction="4way_7" toJunction="3way_18"/>
<trip id="307" depart="511.6462" fromJunction="4way_22" toJunction="4way_9"/>
<trip id="308" depart="513.3128" fromJunction="4way_26" toJunction="4way_19"/>
<trip id="309" depart="514.9794" fromJunction="4way_16" toJunction="4way_27"/>
<trip id="310" depart="516.6460000000001" fromJunction="3way_24" toJunction="4way_28"/>
<trip id="311" depart="518.3126" fromJunction="3way_11" toJunction="3way_24"/>
<trip id="312" depart="519.9792" fromJunction="3way_4" toJunction="4way_27"/>
<trip id="313" depart="521.6458" fromJunction="4way_19" toJunction="3way_6"/>
<trip id="314" depart="523.3124" fromJunction="3way_17" toJunction="3way_29"/>
<trip id="315" depart="524.979" fromJunction="3way_2" toJunction="4way_27"/>
<trip id="316" depart="526.6456000000001" fromJunction="3way_4" toJunction="3way_6"/>
<trip id="317" depart="528.3122000000001" fromJunction="4way_28" toJunction="3way_12"/>
<trip id="318" depart="529.9788" fromJunction="4way_27" toJunction="3way_18"/>
<trip id="319" depart="531.6454" fromJunction="3way_34" toJunction="3way_4"/>
<trip id="320" depart="533.312" fromJunction="3way_31" toJunction="4way_14"/>
<trip id="321" depart="534.9786" fromJunction="4way_8" toJunction="4way_20"/>
<trip id="322" depart="536.6452" fromJunction="3way_18" toJunction="3way_24"/>
<trip id="323" depart="538.3118000000001" fromJunction="3way_3" toJunction="4way_25"/>
<trip id="324" depart="539.9784000000001" fromJunction="4way_8" toJunction="4way_21"/>
<trip id="325" depart="541.645" fromJunction="4way_13" toJunction="4way_26"/>
<trip id="326" depart="543.3116" fromJunction="3way_24" toJunction="3way_4"/>
<trip id="327" depart="544.9782" fromJunction="3way_32" toJunction="3way_24"/>
<trip id="328" depart="546.6448" fromJunction="4way_26" toJunction="3way_1"/>
<trip id="329" depart="548.3114" fromJunction="4way_25" toJunction="3way_4"/>
<trip id="330" depart="549.9780000000001" fromJunction="4way_8" toJunction="4way_20"/>
<trip id="331" depart="551.6446000000001" fromJunction="3way_4" toJunction="4way_22"/>
<trip id="332" depart="553.3112" fromJunction="3way_1" toJunction="4way_27"/>
<trip id="333" depart="554.9778" fromJunction="3way_24" toJunction="4way_13"/>
<trip id="334" depart="556.6444" fromJunction="3way_31" toJunction="4way_7"/>
<trip id="335" depart="558.311" fromJunction="3way_1" toJunction="3way_23"/>
<trip id="336" depart="559.9776" fromJunction="4way_21" toJunction="4way_7"/>
<trip id="337" depart="561.6442000000001" fromJunction="3way_29" toJunction="3way_31"/>
<trip id="338" depart="563.3108" fromJunction="3way_4" toJunction="3way_29"/>
<trip id="339" depart="564.9774" fromJunction="3way_3" toJunction="3way_34"/>
<trip id="340" depart="566.644" fromJunction="4way_27" toJunction="3way_3"/>
<trip id="341" depart="568.3106" fromJunction="4way_13" toJunction="3way_17"/>
<trip id="342" depart="569.9772" fromJunction="3way_12" toJunction="4way_9"/>
<trip id="343" depart="571.6438" fromJunction="3way_23" toJunction="3way_11"/>
<trip id="344" depart="573.3104000000001" fromJunction="4way_7" toJunction="3way_18"/>
<trip id="345" depart="574.977" fromJunction="4way_15" toJunction="3way_31"/>
<trip id="346" depart="576.6436" fromJunction="4way_16" toJunction="4way_9"/>
<trip id="347" depart="578.3102" fromJunction="4way_10" toJunction="3way_1"/>
<trip id="348" depart="579.9768" fromJunction="4way_10" toJunction="3way_24"/>
<trip id="349" depart="581.6434" fromJunction="4way_28" toJunction="4way_20"/>
<trip id="350" depart="583.3100000000001" fromJunction="3way_31" toJunction="4way_9"/>
<trip id="351" depart="584.9766000000001" fromJunction="3way_24" toJunction="4way_7"/>
<trip id="352" depart="586.6432" fromJunction="3way_34" toJunction="3way_31"/>
<trip id="353" depart="588.3098" fromJunction="4way_14" toJunction="3way_6"/>
<trip id="354" depart="589.9764" fromJunction="4way_7" toJunction="3way_34"/>
<trip id="355" depart="591.643" fromJunction="3way_17" toJunction="3way_4"/>
<trip id="356" depart="593.3096" fromJunction="4way_28" toJunction="3way_2"/>
<trip id="357" depart="594.9762000000001" fromJunction="3way_17" toJunction="3way_1"/>
<trip id="358" depart="596.6428000000001" fromJunction="3way_3" toJunction="4way_25"/>
<trip id="359" depart="598.3094" fromJunction="4way_26" toJunction="4way_10"/>
<trip id="360" depart="599.976" fromJunction="4way_7" toJunction="4way_22"/>
<trip id="361" depart="601.6426" fromJunction="4way_13" toJunction="3way_33"/>
<trip id="362" depart="603.3092" fromJunction="4way_7" toJunction="4way_16"/>
<trip id="363" depart="604.9758" fromJunction="4way_10" toJunction="3way_34"/>
<trip id="364" depart="606.6424000000001" fromJunction="3way_1" toJunction="3way_31"/>
<trip id="365" depart="608.3090000000001" fromJunction="3way_32" toJunction="3way_29"/>
<trip id="366" depart="609.9756" fromJunction="3way_12" toJunction="4way_27"/>
<trip id="367" depart="611.6422" fromJunction="3way_32" toJunction="3way_12"/>