<routes xmlns:xsi="http://www.w3.org/2001/XMLSchema-instance" xsi:noNamespaceSchemaLocation="http://sumo.dlr.de/xsd/routes_file.xsd">
<trip id="0" depart="0.0" fromJunction="4way_12" toJunction="4way_26"/>
<trip id="1" depart="0.2083" fromJunction="4way_26" toJunction="4way_11"/>
<trip id="2" depart="0.4166" fromJunction="4way_27" toJunction="4way_17"/>
<trip id="3" depart="0.6249" fromJunction="4way_53" toJunction="4way_25"/>
<trip id="4" depart="0.8332" fromJunction="3way_8" toJunction="4way_38"/>
<trip id="5" depart="1.0415" fromJunction="4way_18" toJunction="4way_52"/>
<trip id="6" depart="1.2498" fromJunction="4way_22" toJunction="4way_42"/>
<trip id="7" depart="1.4581000000000002" fromJunction="3way_6" toJunction="3way_5"/>
<trip id="8" depart="1.6664" fromJunction="4way_21" toJunction="3way_2"/>
<trip id="9" depart="1.8747" fromJunction="4way_45" toJunction="4way_44"/>
<trip id="10" depart="2.083" fromJunction="4way_52" toJunction="4way_46"/>
<trip id="11" depart="2.2913" fromJunction="4way_44" toJunction="4way_33"/>
<trip id="12" depart="2.4996" fromJunction="4way_27" toJunction="3way_23"/>
<trip id="13" depart="2.7079" fromJunction="4way_30" toJunction="3way_31"/>
<trip id="14" depart="2.9162000000000003" fromJunction="4way_9" toJunction="4way_18"/>
<trip id="15" depart="3.1245000000000003" fromJunction="4way_44" toJunction="3way_59"/>
<trip id="16" depart="3.3328" fromJunction="4way_42" toJunction="4way_33"/>
<trip id="17" depart="3.5411" fromJunction="4way_19" toJunction="3way_2"/>
<trip id="18" depart="3.7494" fromJunction="4way_19" toJunction="4way_11"/>
<trip id="19" depart="3.9577000000000004" fromJunction="4way_43" toJunction="4way_30"/>
<trip id="20" depart="4.166" fromJunction="4way_25" toJunction="3way_24"/>
<trip id="21" depart="4.3743" fromJunction="3way_4" toJunction="4way_51"/>
<trip id="22" depart="4.5826" fromJunction="3way_23" toJunction="3way_62"/>
<trip id="23" depart="4.790900000000001" fromJunction="3way_24" toJunction="3way_48"/>
<trip id="24" depart="4.9992" fromJunction="4way_25" toJunction="4way_42"/>
<trip id="25" depart="5.2075000000000005" fromJunction="3way_15" toJunction="4way_54"/>
<trip id="26" depart="5.4158" fromJunction="3way_39" toJunction="3way_62"/>
<trip id="27" depart="5.6241" fromJunction="3way_59" toJunction="4way_35"/>
<trip id="28" depart="5.832400000000001" fromJunction="3way_60" toJunction="4way_33"/>
<trip id="29" depart="6.0407" fromJunction="3way_15" toJunction="3way_39"/>
<trip id="30" depart="6.2490000000000006" fromJunction="3way_31" toJunction="4way_35"/>
<trip id="31" depart="6.4573" fromJunction="3way_16" toJunction="3way_55"/>
<trip id="32" depart="6.6656" fromJunction="3way_6" toJunction="4way_21"/>
<trip id="33" depart="6.873900000000001" fromJunction="3way_6" toJunction="4way_29"/>
<trip id="34" depart="7.0822" fromJunction="4way_41" toJunction="4way_46"/>
<trip id="35" depart="7.290500000000001" fromJunction="4way_11" toJunction="4way_46"/>
<trip id="36" depart="7.4988" fromJunction="3way_3" toJunction="4way_28"/>
<trip id="37" depart="7.7071000000000005" fromJunction="3way_23" toJunction="3way_58"/>
<trip id="38" depart="7.915400000000001" fromJunction="3way_23" toJunction="3way_57"/>
<trip id="39" depart="8.123700000000001" fromJunction="4way_9" toJunction="3way_40"/>
<trip id="40" depart="8.332" fromJunction="4way_51" toJunction="3way_4"/>
<trip id="41" depart="8.5403" fromJunction="3way_59" toJunction="4way_34"/>
<trip id="42" depart="8.7486" fromJunction="3way_6" toJunction="4way_18"/>
<trip id="43" depart="8.956900000000001" fromJunction="4way_22" toJunction="4way_42"/>
<trip id="44" depart="9.1652" fromJunction="4way_43" toJunction="3way_40"/>
<trip id="45" depart="9.3735" fromJunction="4way_12" toJunction="3way_23"/>
<trip id="46" depart="9.581800000000001" fromJunction="3way_47" toJunction="3way_57"/>
<trip id="47" depart="9.7901" fromJunction="3way_2" toJunction="4way_50"/>
<trip id="48" depart="9.9984" fromJunction="3way_1" toJunction="4way_21"/>
<trip id="49" depart="10.206700000000001" fromJunction="3way_58" toJunction="4way_43"/>
<trip id="50" depart="10.415000000000001" fromJunction="4way_38" toJunction="4way_28"/>
<trip id="51" depart="10.6233" fromJunction="4way_42" toJunction="3way_60"/>
<trip id="52" depart="10.8316" fromJunction="4way_42" toJunction="4way_50"/>
<trip id="53" depart="11.039900000000001" fromJunction="4way_38" toJunction="3way_61"/>
<trip id="54" depart="11.2482" fromJunction="4way_29" toJunction="4way_25"/>
<trip id="55" depart="11.4565" fromJunction="3way_57" toJunction="4way_51"/>
<trip id="56" depart="11.664800000000001" fromJunction="3way_8" toJunction="4way_13"/>
<trip id="57" depart="11.8731" fromJunction="4way_42" toJunction="4way_45"/>
<trip id="58" depart="12.0814" fromJunction="4way_51" toJunction="4way_45"/>
<trip id="59" depart="12.289700000000002" fromJunction="4way_10" toJunction="4way_20"/>
<trip id="60" depart="12.498000000000001" fromJunction="4way_27" toJunction="4way_38"/>
<trip id="61" depart="12.7063" fromJunction="4way_11" toJunction="4way_17"/>
<trip id="62" depart="12.9146" fromJunction="3way_48" toJunction="3way_2"/>
<trip id="63" depart="13.122900000000001" fromJunction="3way_57" toJunction="4way_35"/>
<trip id="64" depart="13.3312" fromJunction="4way_17" toJunction="4way_19"/>
<trip id="65" depart="13.5395" fromJunction="3way_57" toJunction="3way_31"/>
<trip id="66" depart="13.747800000000002" fromJunction="4way_50" toJunction="4way_42"/>
<trip id="67" depart="13.956100000000001" fromJunction="4way_35" toJunction="4way_42"/>
<trip id="68" depart="14.1644" fromJunction="4way_17" toJunction="4way_35"/>
<trip id="69" depart="14.3727" fromJunction="3way_16" toJunction="4way_53"/>
<trip id="70" depart="14.581000000000001" fromJunction="4way_53" toJunction="4way_25"/>
<trip id="71" depart="14.7893" fromJunction="4way_12" toJunction="4way_13"/>
<trip id="72" depart="14.9976" fromJunction="4way_22" toJunction="3way_15"/>
<trip id="73" depart="15.205900000000002" fromJunction="4way_54" toJunction="4way_12"/>
<trip id="74" depart="15.414200000000001" fromJunction="4way_45" toJunction="3way_31"/>
<trip id="75" depart="15.6225" fromJunction="4way_11" toJunction="3way_39"/>
<trip id="76" depart="15.830800000000002" fromJunction="4way_29" toJunction="3way_23"/>
<trip id="77" depart="16.0391" fromJunction="4way_42" toJunction="4way_13"/>
<trip id="78" depart="16.247400000000003" fromJunction="3way_5" toJunction="4way_9"/>
<trip id="79" depart="16.4557" fromJunction="4way_33" toJunction="4way_51"/>
<trip id="80" depart="16.664" fromJunction="4way_37" toJunction="4way_20"/>
<trip id="81" depart="16.872300000000003" fromJunction="4way_37" toJunction="4way_46"/>
<trip id="82" depart="17.0806" fromJunction="3way_24" toJunction="3way_1"/>
<trip id="83" depart="17.2889" fromJunction="3way_47" toJunction="4way_20"/>
<trip id="84" depart="17.4972" fromJunction="3way_4" toJunction="4way_18"/>
<trip id="85" depart="17.7055" fromJunction="3way_2" toJunction="3way_55"/>
<trip id="86" depart="17.913800000000002" fromJunction="3way_61" toJunction="4way_52"/>
<trip id="87" depart="18.1221" fromJunction="4way_22" toJunction="3way_32"/>
<trip id="88" depart="18.3304" fromJunction="3way_2" toJunction="4way_12"/>
<trip id="89" depart="18.538700000000002" fromJunction="4way_19" toJunction="3way_39"/>
<trip id="90" depart="18.747" fromJunction="3way_60" toJunction="4way_42"/>
<trip id="91" depart="18.9553" fromJunction="4way_11" toJunction="4way_30"/>
<trip id="92" depart="19.163600000000002" fromJunction="4way_50" toJunction="4way_26"/>
<trip id="93" depart="19.3719" fromJunction="3way_48" toJunction="4way_20"/>
<trip id="94" depart="19.5802" fromJunction="3way_62" toJunction="3way_8"/>
<trip id="95" depart="19.788500000000003" fromJunction="4way_30" toJunction="3way_55"/>
<trip id="96" depart="19.9968" fromJunction="4way_49" toJunction="4way_28"/>
<trip id="97" depart="20.2051" fromJunction="3way_59" toJunction="3way_61"/>
<trip id="98" depart="20.413400000000003" fromJunction="4way_25" toJunction="3way_4"/>
<trip id="99" depart="20.6217" fromJunction="4way_51" toJunction="3way_48"/>
<trip id="100" depart="20.830000000000002" fromJunction="3way_47" toJunction="3way_16"/>
<trip id="101" depart="21.0383" fromJunction="3way_5" toJunction="3way_2"/>
<trip id="102" depart="21.2466" fromJunction="4way_33" toJunction="4way_43"/>
<trip id="103" depart="21.454900000000002" fromJunction="4way_53" toJunction="4way_26"/>
<trip id="104" depart="21.6632" fromJunction="3way_61" toJunction="4way_54"/>
<trip id="105" depart="21.8715" fromJunction="3way_59" toJunction="4way_35"/>
<trip id="106" depart="22.079800000000002" fromJunction="4way_36" toJunction="3way_2"/>
<trip id="107" depart="22.2881" fromJunction="3way_8" toJunction="3way_40"/>
<trip id="108" depart="22.4964" fromJunction="4way_21" toJunction="4way_50"/>
<trip id="109" depart="22.704700000000003" fromJunction="4way_45" toJunction="4way_19"/>
<trip id="110" depart="22.913" fromJunction="4way_52" toJunction="3way_58"/>
<trip id="111" depart="23.1213" fromJunction="4way_38" toJunction="3way_55"/>
<trip id="112" depart="23.329600000000003" fromJunction="3way_62" toJunction="4way_51"/>
<trip id="113" depart="23.5379" fromJunction="4way_20" toJunction="4way_30"/>
<trip id="114" depart="23.7462" fromJunction="3way_62" toJunction="3way_59"/>
<trip id="115" depart="23.954500000000003" fromJunction="3way_2" toJunction="4way_18"/>
<trip id="116" depart="24.1628" fromJunction="4way_17" toJunction="3way_62"/>
<trip id="117" depart="24.371100000000002" fromJunction="4way_33" toJunction="3way_16"/>
<trip id="118" depart="24.579400000000003" fromJunction="4way_50" toJunction="3way_58"/>
<trip id="119" depart="24.7877" fromJunction="3way_23" toJunction="4way_37"/>
<trip id="120" depart="24.996000000000002" fromJunction="3way_23" toJunction="4way_18"/>
<trip id="121" depart="25.2043" fromJunction="3way_8" toJunction="4way_20"/>
<trip id="122" depart="25.4126" fromJunction="3way_47" toJunction="4way_34"/>
<trip id="123" depart="25.620900000000002" fromJunction="4way_49" toJunction="3way_31"/>
<trip id="124" depart="25.8292" fromJunction="4way_30" toJunction="3way_24"/>
<trip id="125" depart="26.0375" fromJunction="4way_28" toJunction="4way_36"/>
<trip id="126" depart="26.245800000000003" fromJunction="3way_6" toJunction="4way_14"/>
<trip id="127" depart="26.4541" fromJunction="4way_50" toJunction="4way_34"/>
<trip id="128" depart="26.6624" fromJunction="3way_57" toJunction="4way_38"/>
<trip id="129" depart="26.870700000000003" fromJunction="3way_15" toJunction="3way_60"/>
<trip id="130" depart="27.079" fromJunction="4way_22" toJunction="3way_1"/>
<trip id="131" depart="27.287300000000002" fromJunction="4way_52" toJunction="4way_43"/>
<trip id="132" depart="27.495600000000003" fromJunction="4way_50" toJunction="3way_58"/>
<trip id="133" depart="27.7039" fromJunction="4way_49" toJunction="3way_4"/>
<trip id="134" depart="27.912200000000002" fromJunction="4way_45" toJunction="4way_46"/>
<trip id="135" depart="28.120500000000003" fromJunction="4way_38" toJunction="3way_32"/>
<trip id="136" depart="28.3288" fromJunction="4way_30" toJunction="3way_61"/>
<trip id="137" depart="28.537100000000002" fromJunction="4way_52" toJunction="4way_30"/>
<trip id="138" depart="28.7454" fromJunction="4way_45" toJunction="4way_19"/>
<trip id="139" depart="28.9537" fromJunction="4way_29" toJunction="3way_57"/>
<trip id="140" depart="29.162000000000003" fromJunction="3way_1" toJunction="4way_19"/>
<trip id="141" depart="29.3703" fromJunction="3way_31" toJunction="3way_32"/>
<trip id="142" depart="29.5786" fromJunction="4way_41" toJunction="4way_46"/>
<trip id="143" depart="29.786900000000003" fromJunction="4way_27" toJunction="4way_49"/>
<trip id="144" depart="29.9952" fromJunction="3way_31" toJunction="3way_16"/>
<trip id="145" depart="30.203500000000002" fromJunction="3way_55" toJunction="4way_21"/>
<trip id="146" depart="30.411800000000003" fromJunction="3way_61" toJunction="4way_10"/>
<trip id="147" depart="30.6201" fromJunction="4way_37" toJunction="3way_6"/>
<trip id="148" depart="30.828400000000002" fromJunction="4way_38" toJunction="4way_46"/>
<trip id="149" depart="31.036700000000003" fromJunction="4way_44" toJunction="4way_14"/>
<trip id="150" depart="31.245" fromJunction="3way_5" toJunction="3way_40"/>
<trip id="151" depart="31.453300000000002" fromJunction="3way_61" toJunction="4way_9"/>
<trip id="152" depart="31.661600000000004" fromJunction="3way_4" toJunction="3way_23"/>
<trip id="153" depart="31.8699" fromJunction="3way_1" toJunction="4way_20"/>
<trip id="154" depart="32.0782" fromJunction="3way_31" toJunction="4way_44"/>
<trip id="155" depart="32.286500000000004" fromJunction="3way_6" toJunction="3way_5"/>
<trip id="156" depart="32.494800000000005" fromJunction="3way_60" toJunction="4way_43"/>
<trip id="157" depart="32.7031" fromJunction="4way_34" toJunction="4way_17"/>
<trip id="158" depart="32.9114" fromJunction="4way_20" toJunction="4way_37"/>
<trip id="159" depart="33.1197" fromJunction="3way_23" toJunction="3way_58"/>
<trip id="160" depart="33.328" fromJunction="3way_48" toJunction="3way_4"/>
<trip id="161" depart="33.536300000000004" fromJunction="4way_33" toJunction="3way_59"/>
<trip id="162" depart="33.744600000000005" fromJunction="4way_51" toJunction="4way_43"/>
<trip id="163" depart="33.9529" fromJunction="3way_16" toJunction="3way_57"/>
<trip id="164" depart="34.1612" fromJunction="4way_52" toJunction="3way_47"/>
<trip id="165" depart="34.3695" fromJunction="4way_51" toJunction="3way_4"/>
<trip id="166" depart="34.5778" fromJunction="3way_16" toJunction="3way_59"/>
<trip id="167" depart="34.786100000000005" fromJunction="3way_58" toJunction="4way_50"/>
<trip id="168" depart="34.9944" fromJunction="3way_55" toJunction="3way_16"/>
<trip id="169" depart="35.2027" fromJunction="3way_3" toJunction="4way_33"/>
<trip id="170" depart="35.411" fromJunction="3way_5" toJunction="4way_52"/>
<trip id="171" depart="35.6193" fromJunction="3way_48" toJunction="4way_18"/>
<trip id="172" depart="35.827600000000004" fromJunction="4way_38" toJunction="4way_42"/>
<trip id="173" depart="36.035900000000005" fromJunction="3way_3" toJunction="4way_27"/>
<trip id="174" depart="36.2442" fromJunction="4way_10" toJunction="4way_17"/>
<trip id="175" depart="36.4525" fromJunction="4way_43" toJunction="4way_26"/>
<trip id="176" depart="36.6608" fromJunction="3way_23" toJunction="3way_58"/>
<trip id="177" depart="36.8691" fromJunction="4way_38" toJunction="3way_8"/>
<trip id="178" depart="37.077400000000004" fromJunction="4way_14" toJunction="3way_55"/>
<trip id="179" depart="37.285700000000006" fromJunction="4way_33" toJunction="4way_26"/>
<trip id="180" depart="37.494" fromJunction="4way_33" toJunction="4way_45"/>
<trip id="181" depart="37.7023" fromJunction="3way_8" toJunction="4way_20"/>
<trip id="182" depart="37.9106" fromJunction="4way_51" toJunction="4way_14"/>
<trip id="183" depart="38.118900000000004" fromJunction="3way_40" toJunction="4way_51"/>
<trip id="184" depart="38.327200000000005" fromJunction="4way_27" toJunction="4way_36"/>
<trip id="185" depart="38.5355" fromJunction="3way_39" toJunction="3way_60"/>
<trip id="186" depart="38.7438" fromJunction="4way_38" toJunction="4way_52"/>
<trip id="187" depart="38.9521" fromJunction="4way_50" toJunction="4way_33"/>
<trip id="188" depart="39.1604" fromJunction="4way_33" toJunction="4way_37"/>
<trip id="189" depart="39.368700000000004" fromJunction="4way_42" toJunction="4way_38"/>
<trip id="190" depart="39.577000000000005" fromJunction="4way_14" toJunction="4way_21"/>
<trip id="191" depart="39.7853" fromJunction="3way_39" toJunction="4way_13"/>
<trip id="192" depart="39.9936" fromJunction="3way_8" toJunction="4way_19"/>
<trip id="193" depart="40.2019" fromJunction="4way_17" toJunction="3way_4"/>
<trip id="194" depart="40.4102" fromJunction="4way_29" toJunction="3way_59"/>
<trip id="195" depart="40.618500000000004" fromJunction="4way_38" toJunction="3way_2"/>
<trip id="196" depart="40.826800000000006" fromJunction="3way_55" toJunction="3way_1"/>
<trip id="197" depart="41.0351" fromJunction="4way_22" toJunction="4way_9"/>
<trip id="198" depart="41.2434" fromJunction="4way_30" toJunction="3way_6"/>
<trip id="199" depart="41.4517" fromJunction="4way_33" toJunction="4way_45"/>
<trip id="200" depart="41.660000000000004" fromJunction="3way_61" toJunction="3way_40"/>
<trip id="201" depart="41.868300000000005" fromJunction="3way_2" toJunction="4way_11"/>
<trip id="202" depart="42.0766" fromJunction="4way_17" toJunction="3way_1"/>
<trip id="203" depart="42.2849" fromJunction="3way_59" toJunction="3way_5"/>
<trip id="204" depart="42.4932" fromJunction="3way_59" toJunction="3way_61"/>
<trip id="205" depart="42.7015" fromJunction="3way_1" toJunction="3way_23"/>
<trip id="206" depart="42.909800000000004" fromJunction="4way_19" toJunction="3way_15"/>
<trip id="207" depart="43.118100000000005" fromJunction="4way_54" toJunction="4way_46"/>
<trip id="208" depart="43.3264" fromJunction="3way_39" toJunction="4way_9"/>
<trip id="209" depart="43.5347" fromJunction="4way_49" toJunction="4way_27"/>
<trip id="210" depart="43.743" fromJunction="3way_4" toJunction="4way_54"/>
<trip id="211" depart="43.9513" fromJunction="3way_57" toJunction="4way_44"/>
<trip id="212" depart="44.159600000000005" fromJunction="4way_35" toJunction="3way_60"/>
<trip id="213" depart="44.367900000000006" fromJunction="4way_35" toJunction="3way_60"/>
<trip id="214" depart="44.5762" fromJunction="4way_17" toJunction="4way_18"/>
<trip id="215" depart="44.7845" fromJunction="3way_57" toJunction="4way_34"/>
<trip id="216" depart="44.9928" fromJunction="4way_9" toJunction="4way_12"/>
<trip id="217" depart="45.201100000000004" fromJunction="4way_21" toJunction="3way_24"/>
<trip id="218" depart="45.409400000000005" fromJunction="3way_3" toJunction="4way_22"/>
<trip id="219" depart="45.617700000000006" fromJunction="3way_32" toJunction="3way_61"/>
<trip id="220" depart="45.826" fromJunction="4way_54" toJunction="4way_13"/>
<trip id="221" depart="46.0343" fromJunction="4way_14" toJunction="4way_46"/>
<trip id="222" depart="46.2426" fromJunction="4way_54" toJunction="3way_57"/>
<trip id="223" depart="46.450900000000004" fromJunction="3way_15" toJunction="3way_60"/>
<trip id="224" depart="46.659200000000006" fromJunction="3way_60" toJunction="4way_38"/>
<trip id="225" depart="46.8675" fromJunction="3way_4" toJunction="4way_51"/>
<trip id="226" depart="47.0758" fromJunction="4way_45" toJunction="4way_20"/>
<trip id="227" depart="47.2841" fromJunction="3way_16" toJunction="3way_58"/>
<trip id="228" depart="47.4924" fromJunction="4way_28" toJunction="3way_16"/>
<trip id="229" depart="47.700700000000005" fromJunction="3way_47" toJunction="3way_60"/>
<trip id="230" depart="47.909000000000006" fromJunction="3way_48" toJunction="4way_25"/>
<trip id="231" depart="48.1173" fromJunction="3way_60" toJunction="4way_29"/>
<trip id="232" depart="48.3256" fromJunction="4way_30" toJunction="4way_10"/>
<trip id="233" depart="48.5339" fromJunction="4way_45" toJunction="4way_27"/>
<trip id="234" depart="48.742200000000004" fromJunction="4way_36" toJunction="4way_30"/>
<trip id="235" depart="48.950500000000005" fromJunction="4way_46" toJunction="4way_51"/>
<trip id="236" depart="49.15880000000001" fromJunction="4way_33" toJunction="4way_54"/>
<trip id="237" depart="49.3671" fromJunction="3way_57" toJunction="3way_5"/>
<trip id="238" depart="49.5754" fromJunction="4way_17" toJunction="3way_39"/>
<trip id="239" depart="49.7837" fromJunction="4way_11" toJunction="3way_23"/>
<trip id="240" depart="49.992000000000004" fromJunction="4way_53" toJunction="3way_16"/>
<trip id="241" depart="50.200300000000006" fromJunction="4way_26" toJunction="4way_46"/>
<trip id="242" depart="50.4086" fromJunction="4way_50" toJunction="3way_58"/>
<trip id="243" depart="50.6169" fromJunction="4way_9" toJunction="4way_53"/>
<trip id="244" depart="50.8252" fromJunction="3way_58" toJunction="4way_34"/>
<trip id="245" depart="51.033500000000004" fromJunction="4way_9" toJunction="4way_33"/>
<trip id="246" depart="51.241800000000005" fromJunction="4way_10" toJunction="3way_60"/>
<trip id="247" depart="51.450100000000006" fromJunction="3way_16" toJunction="3way_48"/>
<trip id="248" depart="51.6584" fromJunction="4way_36" toJunction="4way_18"/>
<trip id="249" depart="51.8667" fromJunction="4way_22" toJunction="3way_32"/>
<trip id="250" depart="52.075" fromJunction="3way_3" toJunction="4way_37"/>
<trip id="251" depart="52.283300000000004" fromJunction="4way_25" toJunction="3way_59"/>
<trip id="252" depart="52.491600000000005" fromJunction="3way_32" toJunction="3way_15"/>
<trip id="253" depart="52.69990000000001" fromJunction="4way_43" toJunction="4way_28"/>
<trip id="254" depart="52.9082" fromJunction="4way_12" toJunction="4way_19"/>
<trip id="255" depart="53.1165" fromJunction="3way_32" toJunction="3way_62"/>
<trip id="256" depart="53.3248" fromJunction="4way_45" toJunction="4way_43"/>
<trip id="257" depart="53.533100000000005" fromJunction="3way_58" toJunction="4way_26"/>
<trip id="258" depart="53.741400000000006" fromJunction="4way_12" toJunction="3way_2"/>
<trip id="259" depart="53.9497" fromJunction="3way_16" toJunction="3way_1"/>
<trip id="260" depart="54.158" fromJunction="4way_22" toJunction="4way_18"/>
<trip id="261" depart="54.3663" fromJunction="4way_9" toJunction="3way_6"/>
<trip id="262" depart="54.574600000000004" fromJunction="3way_32" toJunction="3way_2"/>
<trip id="263" depart="54.782900000000005" fromJunction="3way_58" toJunction="4way_19"/>
<trip id="264" depart="54.991200000000006" fromJunction="3way_15" toJunction="3way_62"/>
<trip id="265" depart="55.1995" fromJunction="4way_51" toJunction="4way_42"/>
<trip id="266" depart="55.4078" fromJunction="4way_30" toJunction="4way_43"/>
<trip id="267" depart="55.6161" fromJunction="4way_27" toJunction="3way_1"/>
<trip id="268" depart="55.824400000000004" fromJunction="4way_50" toJunction="4way_11"/>
<trip id="269" depart="56.032700000000006" fromJunction="3way_2" toJunction="4way_38"/>
<trip id="270" depart="56.24100000000001" fromJunction="4way_13" toJunction="4way_51"/>
<trip id="271" depart="56.4493" fromJunction="3way_32" toJunction="4way_10"/>
<trip id="272" depart="56.6576" fromJunction="3way_6" toJunction="4way_52"/>
<trip id="273" depart="56.8659" fromJunction="4way_18" toJunction="4way_25"/>
<trip id="274" depart="57.074200000000005" fromJunction="3way_6" toJunction="4way_51"/>
<trip id="275" depart="57.282500000000006" fromJunction="4way_9" toJunction="3way_61"/>
<trip id="276" depart="57.4908" fromJunction="4way_53" toJunction="4way_19"/>
<trip id="277" depart="57.6991" fromJunction="3way_31" toJunction="4way_19"/>
<trip id="278" depart="57.9074" fromJunction="4way_45" toJunction="4way_46"/>
<trip id="279" depart="58.115700000000004" fromJunction="4way_22" toJunction="4way_10"/>
<trip id="280" depart="58.324000000000005" fromJunction="4way_22" toJunction="4way_26"/>
<trip id="281" depart="58.532300000000006" fromJunction="4way_46" toJunction="4way_21"/>
<trip id="282" depart="58.7406" fromJunction="3way_3" toJunction="4way_22"/>
<trip id="283" depart="58.9489" fromJunction="3way_8" toJunction="3way_47"/>
<trip id="284" depart="59.1572" fromJunction="3way_48" toJunction="4way_38"/>
<trip id="285" depart="59.365500000000004" fromJunction="4way_53" toJunction="3way_39"/>
<trip id="286" depart="59.573800000000006" fromJunction="4way_14" toJunction="4way_25"/>
<trip id="287" depart="59.78210000000001" fromJunction="4way_35" toJunction="3way_39"/>
<trip id="288" depart="59.9904" fromJunction="3way_5" toJunction="4way_25"/>
<trip id="289" depart="60.1987" fromJunction="3way_60" toJunction="4way_51"/>
<trip id="290" depart="60.407000000000004" fromJunction="3way_4" toJunction="3way_3"/>
<trip id="291" depart="60.615300000000005" fromJunction="4way_14" toJunction="3way_4"/>
<trip id="292" depart="60.823600000000006" fromJunction="4way_53" toJunction="4way_28"/>
<trip id="293" depart="61.0319" fromJunction="4way_18" toJunction="4way_43"/>
<trip id="294" depart="61.2402" fromJunction="4way_54" toJunction="3way_48"/>
<trip id="295" depart="61.4485" fromJunction="4way_41" toJunction="3way_24"/>
<trip id="296" depart="61.656800000000004" fromJunction="4way_46" toJunction="3way_16"/>
<trip id="297" depart="61.865100000000005" fromJunction="3way_40" toJunction="3way_47"/>
<trip id="298" depart="62.07340000000001" fromJunction="3way_4" toJunction="4way_43"/>
<trip id="299" depart="62.2817" fromJunction="4way_41" toJunction="4way_11"/>
<trip id="300" depart="62.49" fromJunction="3way_60" toJunction="3way_57"/>
<trip id="301" depart="62.6983" fromJunction="3way_16" toJunction="4way_10"/>
<trip id="302" depart="62.906600000000005" fromJunction="3way_32" toJunction="4way_33"/>
<trip id="303" depart="63.114900000000006" fromJunction="3way_31" toJunction="4way_46"/>
<trip id="304" depart="63.32320000000001" fromJunction="3way_32" toJunction="3way_6"/>
<trip id="305" depart="63.5315" fromJunction="4way_35" toJunction="4way_50"/>
<trip id="306" depart="63.7398" fromJunction="4way_54" toJunction="3way_8"/>
<trip id="307" depart="63.948100000000004" fromJunction="4way_20" toJunction="3way_24"/>
<trip id="308" depart="64.1564" fromJunction="4way_13" toJunction="4way_27"/>
<trip id="309" depart="64.3647" fromJunction="4way_53" toJunction="4way_46"/>
<trip id="310" depart="64.57300000000001" fromJunction="4way_51" toJunction="4way_36"/>
<trip id="311" depart="64.7813" fromJunction="3way_31" toJunction="3way_32"/>
<trip id="312" depart="64.98960000000001" fromJunction="3way_60" toJunction="3way_4"/>
<trip id="313" depart="65.1979" fromJunction="4way_18" toJunction="4way_17"/>
<trip id="314" depart="65.4062" fromJunction="4way_38" toJunction="4way_44"/>
<trip id="315" depart="65.6145" fromJunction="3way_15" toJunction="3way_23"/>
<trip id="316" depart="65.8228" fromJunction="4way_28" toJunction="4way_50"/>
<trip id="317" depart="66.03110000000001" fromJunction="4way_30" toJunction="4way_29"/>
<trip id="318" depart="66.2394" fromJunction="3way_8" toJunction="4way_54"/>
<trip id="319" depart="66.4477" fromJunction="3way_31" toJunction="3way_16"/>
<trip id="320" depart="66.656" fromJunction="4way_35" toJunction="4way_51"/>
<trip id="321" depart="66.8643" fromJunction="3way_6" toJunction="4way_37"/>
<trip id="322" depart="67.07260000000001" fromJunction="4way_42" toJunction="4way_49"/>
<trip id="323" depart="67.2809" fromJunction="3way_47" toJunction="3way_60"/>
<trip id="324" depart="67.48920000000001" fromJunction="3way_4" toJunction="4way_37"/>
<trip id="325" depart="67.6975" fromJunction="3way_15" toJunction="4way_41"/>
<trip id="326" depart="67.9058" fromJunction="4way_46" toJunction="4way_33"/>
<trip id="327" depart="68.11410000000001" fromJunction="4way_37" toJunction="4way_17"/>
<trip id="328" depart="68.3224" fromJunction="3way_58" toJunction="3way_23"/>
<trip id="329" depart="68.53070000000001" fromJunction="3way_8" toJunction="4way_9"/>
<trip id="330" depart="68.739" fromJunction="3way_32" toJunction="4way_43"/>
<trip id="331" depart="68.9473" fromJunction="4way_27" toJunction="4way_12"/>
<trip id="332" depart="69.1556" fromJunction="4way_17" toJunction="3way_8"/>
<trip id="333" depart="69.3639" fromJunction="3way_5" toJunction="4way_11"/>
<trip id="334" depart="69.57220000000001" fromJunction="4way_35" toJunction="4way_21"/>
<trip id="335" depart="69.7805" fromJunction="4way_26" toJunction="4way_20"/>
<trip id="336" depart="69.9888" fromJunction="4way_9" toJunction="3way_15"/>
<trip id="337" depart="70.1971" fromJunction="3way_40" toJunction="4way_9"/>
<trip id="338" depart="70.4054" fromJunction="4way_28" toJunction="3way_2"/>
<trip id="339" depart="70.61370000000001" fromJunction="4way_11" toJunction="3way_15"/>
<trip id="340" depart="70.822" fromJunction="4way_27" toJunction="4way_12"/>
<trip id="341" depart="71.03030000000001" fromJunction="3way_15" toJunction="4way_38"/>
<trip id="342" depart="71.2386" fromJunction="3way_2" toJunction="4way_45"/>
<trip id="343" depart="71.4469" fromJunction="4way_9" toJunction="4way_26"/>
<trip id="344" depart="71.65520000000001" fromJunction="3way_24" toJunction="4way_18"/>
<trip id="345" depart="71.8635" fromJunction="3way_2" toJunction="3way_55"/>
<trip id="346" depart="72.07180000000001" fromJunction="4way_29" toJunction="4way_18"/>
<trip id="347" depart="72.2801" fromJunction="3way_61" toJunction="3way_16"/>
<trip id="348" depart="72.4884" fromJunction="3way_6" toJunction="3way_5"/>
<trip id="349" depart="72.6967" fromJunction="3way_15" toJunction="3way_61"/>
<trip id="350" depart="72.905" fromJunction="3way_4" toJunction="3way_59"/>
<trip id="351" depart="73.11330000000001" fromJunction="4way_37" toJunction="3way_4"/>
<trip id="352" depart="73.3216" fromJunction="4way_34" toJunction="3way_39"/>
<trip id="353" depart="73.5299" fromJunction="4way_33" toJunction="4way_44"/>
<trip id="354" depart="73.7382" fromJunction="3way_55" toJunction="3way_39"/>
<trip id="355" depart="73.9465" fromJunction="4way_18" toJunction="4way_17"/>
<trip id="356" depart="74.15480000000001" fromJunction="4way_44" toJunction="3way_32"/>
<trip id="357" depart="74.3631" fromJunction="4way_22" toJunction="4way_36"/>
<trip id="358" depart="74.57140000000001" fromJunction="4way_53" toJunction="3way_2"/>
<trip id="359" depart="74.7797" fromJunction="4way_45" toJunction="3way_8"/>
<trip id="360" depart="74.988" fromJunction="4way_54" toJunction="4way_51"/>
<trip id="361" depart="75.19630000000001" fromJunction="3way_24" toJunction="4way_36"/>
<trip id="362" depart="75.4046" fromJunction="3way_16" toJunction="4way_10"/>
<trip id="363" depart="75.61290000000001" fromJunction="3way_59" toJunction="3way_24"/>
<trip id="364" depart="75.8212" fromJunction="4way_43" toJunction="4way_49"/>
<trip id="365" depart="76.0295" fromJunction="4way_18" toJunction="3way_58"/>