<?xml version="1.0" encoding="UTF-8"?>

<!-- generated on 2023-07-27 02:01:53 by Eclipse SUMO duarouter Version 1.12.0
<configuration xmlns:xsi="http://www.w3.org/2001/XMLSchema-instance" xsi:noNamespaceSchemaLocation="http://sumo.dlr.de/xsd/duarouterConfiguration.xsd">

    <input>
        <net-file value="sq.net.xml"/>
        <route-files value="sq.trips.xml"/>
        <junction-taz value="true"/>
    </input>

    <output>
        <output-file value="sq.rou.xml"/>
        <alternatives-output value="sq.rou.alt.xml"/>
    </output>

    <processing>
        <weights.random-factor value="1.2"/>
    </processing>

    <time>
        <begin value="0"/>
        <end value="7200"/>
    </time>

    <report>
        <verbose value="true"/>
    </report>

    <random_number>
        <seed value="5"/>
    </random_number>

</configuration>
-->

<routes xmlns:xsi="http://www.w3.org/2001/XMLSchema-instance" xsi:noNamespaceSchemaLocation="http://sumo.dlr.de/xsd/routes_file.xsd">
    <vehicle id="0" depart="0.00">
        <route edges="129_4way_67to4way_58 116_4way_58to4way_49 103_4way_49to4way_40 90_4way_40to4way_31 77_4way_31to4way_22 64_4way_22to4way_13 61_4way_13to4way_12"/>
    </vehicle>
    <vehicle id="1" depart="2.22">
        <route edges="136_4way_65to4way_66 127_4way_66to4way_57 114_4way_57to4way_48"/>
    </vehicle>
    <vehicle id="2" depart="4.44">
        <route edges="61_4way_13to4way_12 59_4way_12to4way_11 57_4way_11to4way_10 58_4way_10to4way_19 71_4way_19to4way_28 84_4way_28to4way_37 97_4way_37to4way_46"/>
    </vehicle>
    <vehicle id="3" depart="6.67">
        <route edges="130_4way_60to4way_59 128_4way_59to4way_58 126_4way_58to4way_57 124_4way_57to4way_56 122_4way_56to4way_55"/>
    </vehicle>
    <vehicle id="4" depart="8.89">
        <route edges="71_4way_19to4way_28 84_4way_28to4way_37 97_4way_37to4way_46 109_4way_46to4way_47 111_4way_47to4way_48 113_4way_48to4way_49 115_4way_49to4way_50 117_4way_50to4way_51 119_4way_51to4way_52"/>
    </vehicle>
    <vehicle id="5" depart="11.11">
        <route edges="124_4way_56to4way_57 126_4way_57to4way_58 128_4way_58to4way_59 118_4way_59to4way_50"/>
    </vehicle>
    <vehicle id="6" depart="13.33">
        <route edges="80_4way_25to4way_24 78_4way_24to4way_23 76_4way_23to4way_22 74_4way_22to4way_21"/>
    </vehicle>
    <vehicle id="7" depart="15.56">
        <route edges="34_3way_7to3way_6"/>
    </vehicle>
    <vehicle id="8" depart="17.78">
        <route edges="68_4way_24to4way_15 35_4way_15to3way_6 28_3way_6to3way_5 22_3way_5to3way_4 16_3way_4to3way_3 10_3way_3to3way_2"/>
    </vehicle>
    <vehicle id="9" depart="20.00">
        <route edges="104_4way_42to4way_41"/>
    </vehicle>
    <vehicle id="10" depart="22.22">
        <route edges="130_4way_59to4way_60 132_4way_60to4way_61"/>
    </vehicle>
    <vehicle id="11" depart="24.44">
        <route edges="105_4way_50to4way_41 92_4way_41to4way_32 79_4way_32to4way_23 66_4way_23to4way_14 63_4way_14to4way_13 61_4way_13to4way_12 59_4way_12to4way_11"/>
    </vehicle>
    <vehicle id="12" depart="26.67">
        <route edges="64_4way_13to4way_22 77_4way_22to4way_31 89_4way_31to4way_32 91_4way_32to4way_33 93_4way_33to4way_34 19_4way_34to3way_35"/>
    </vehicle>
    <vehicle id="13" depart="28.89">
        <route edges="19_4way_34to3way_35 18_3way_35to3way_44 24_3way_44to3way_53"/>
    </vehicle>
    <vehicle id="14" depart="31.11">
        <route edges="97_4way_37to4way_46 110_4way_46to4way_55 122_4way_55to4way_56"/>
    </vehicle>
    <vehicle id="15" depart="33.33">
        <route edges="102_4way_41to4way_40 100_4way_40to4way_39 98_4way_39to4way_38 96_4way_38to4way_37 97_4way_37to4way_46 110_4way_46to4way_55 123_4way_55to4way_64 44_4way_64to3way_73"/>
    </vehicle>
    <vehicle id="16" depart="35.56">
        <route edges="62_4way_21to4way_12 59_4way_12to4way_11"/>
    </vehicle>
    <vehicle id="17" depart="37.78">
        <route edges="114_4way_57to4way_48 101_4way_48to4way_39 88_4way_39to4way_30 75_4way_30to4way_21 62_4way_21to4way_12 17_4way_12to3way_3 10_3way_3to3way_2"/>
    </vehicle>
    <vehicle id="18" depart="40.00">
        <route edges="102_4way_40to4way_41 104_4way_41to4way_42 106_4way_42to4way_43 95_4way_43to4way_34"/>
    </vehicle>
    <vehicle id="19" depart="42.22">
        <route edges="33_4way_55to3way_54 26_3way_54to3way_45 20_3way_45to3way_36 14_3way_36to3way_27 7_3way_27to3way_18 8_3way_18to3way_9"/>
    </vehicle>
    <vehicle id="20" depart="44.44">
        <route edges="22_3way_5to3way_4 23_3way_4to4way_13 64_4way_13to4way_22 77_4way_22to4way_31 90_4way_31to4way_40 103_4way_40to4way_49"/>
    </vehicle>
    <vehicle id="21" depart="46.67">
        <route edges="19_3way_35to4way_34 93_4way_34to4way_33 94_4way_33to4way_42 107_4way_42to4way_51 120_4way_51to4way_60 133_4way_60to4way_69 54_4way_69to3way_78 51_3way_78to3way_77"/>
    </vehicle>
    <vehicle id="22" depart="48.89">
        <route edges="56_4way_10to3way_9 8_3way_9to3way_18 7_3way_18to3way_27 14_3way_27to3way_36"/>
    </vehicle>
    <vehicle id="23" depart="51.11">
        <route edges="122_4way_55to4way_56 124_4way_56to4way_57 114_4way_57to4way_48 101_4way_48to4way_39 88_4way_39to4way_30 75_4way_30to4way_21"/>
    </vehicle>
    <vehicle id="24" depart="53.33">
        <route edges="6_3way_17to4way_16 69_4way_16to4way_25 82_4way_25to4way_34 95_4way_34to4way_43 108_4way_43to4way_52 121_4way_52to4way_61 134_4way_61to4way_70"/>
    </vehicle>
    <vehicle id="25" depart="55.56">
        <route edges="37_3way_62to4way_61 134_4way_61to4way_70 55_4way_70to3way_79 53_3way_79to3way_78 51_3way_78to3way_77"/>
    </vehicle>
    <vehicle id="26" depart="57.78">
        <route edges="45_3way_74to3way_75 47_3way_75to3way_76 50_3way_76to4way_67 129_4way_67to4way_58 116_4way_58to4way_49 103_4way_49to4way_40 90_4way_40to4way_31 77_4way_31to4way_22"/>
    </vehicle>
    <vehicle id="27" depart="60.00">
        <route edges="48_3way_75to4way_66 127_4way_66to4way_57 114_4way_57to4way_48 101_4way_48to4way_39 88_4way_39to4way_30 75_4way_30to4way_21 62_4way_21to4way_12 59_4way_12to4way_11"/>
    </vehicle>
    <vehicle id="28" depart="62.22">
        <route edges="12_3way_26to3way_35 18_3way_35to3way_44 24_3way_44to3way_53 30_3way_53to3way_62"/>
    </vehicle>
    <vehicle id="29" depart="64.44">
        <route edges="18_3way_44to3way_35 12_3way_35to3way_26 13_3way_26to4way_25 80_4way_25to4way_24 78_4way_24to4way_23 76_4way_23to4way_22"/>
    </vehicle>
    <vehicle id="30" depart="66.67">
        <route edges="58_4way_10to4way_19 71_4way_19to4way_28 84_4way_28to4way_37 97_4way_37to4way_46 110_4way_46to4way_55 123_4way_55to4way_64 44_4way_64to3way_73 43_3way_73to3way_74 45_3way_74to3way_75 47_3way_75to3way_76 49_3way_76to3way_77 51_3way_77to3way_78"/>
    </vehicle>
    <vehicle id="31" depart="68.89">
        <route edges="6_3way_17to4way_16 67_4way_16to4way_15"/>
    </vehicle>
    <vehicle id="32" depart="71.11">
        <route edges="6_3way_17to4way_16 67_4way_16to4way_15 68_4way_15to4way_24"/>
    </vehicle>
    <vehicle id="33" depart="73.33">
        <route edges="73_4way_20to4way_29 86_4way_29to4way_38 99_4way_38to4way_47 112_4way_47to4way_56 124_4way_56to4way_57 126_4way_57to4way_58 128_4way_58to4way_59 130_4way_59to4way_60 132_4way_60to4way_61"/>
    </vehicle>
    <vehicle id="34" depart="75.56">
        <route edges="114_4way_48to4way_57 126_4way_57to4way_58 128_4way_58to4way_59 130_4way_59to4way_60 132_4way_60to4way_61"/>
    </vehicle>
    <vehicle id="35" depart="77.78">
        <route edges="23_3way_4to4way_13 63_4way_13to4way_14"/>
    </vehicle>
    <vehicle id="36" depart="80.00">
        <route edges="19_3way_35to4way_34 93_4way_34to4way_33 91_4way_33to4way_32 89_4way_32to4way_31 87_4way_31to4way_30 85_4way_30to4way_29 83_4way_29to4way_28 15_4way_28to3way_27 14_3way_27to3way_36 20_3way_36to3way_45 26_3way_45to3way_54 32_3way_54to3way_63"/>
    </vehicle>
    <vehicle id="37" depart="82.22">
        <route edges="19_3way_35to4way_34 93_4way_34to4way_33 91_4way_33to4way_32 89_4way_32to4way_31 87_4way_31to4way_30 85_4way_30to4way_29 83_4way_29to4way_28 15_4way_28to3way_27 14_3way_27to3way_36 20_3way_36to3way_45 26_3way_45to3way_54"/>
    </vehicle>
    <vehicle id="38" depart="84.44">
        <route edges="21_4way_37to3way_36"/>
    </vehicle>
    <vehicle id="39" depart="86.67">
        <route edges="103_4way_49to4way_40 90_4way_40to4way_31 77_4way_31to4way_22 64_4way_22to4way_13 23_4way_13to3way_4 22_3way_4to3way_5"/>
    </vehicle>
    <vehicle id="40" depart="88.89">
        <route edges="44_3way_73to4way_64 123_4way_64to4way_55 110_4way_55to4way_46 97_4way_46to4way_37 84_4way_37to4way_28 71_4way_28to4way_19 70_4way_19to4way_20 72_4way_20to4way_21"/>
    </vehicle>
    <vehicle id="41" depart="91.11">
        <route edges="4_3way_17to3way_26 12_3way_26to3way_35 18_3way_35to3way_44 24_3way_44to3way_53 30_3way_53to3way_62 37_3way_62to4way_61 132_4way_61to4way_60 130_4way_60to4way_59 128_4way_59to4way_58 126_4way_58to4way_57 124_4way_57to4way_56"/>
    </vehicle>
    <vehicle id="42" depart="93.33">
        <route edges="80_4way_25to4way_24 78_4way_24to4way_23 76_4way_23to4way_22 74_4way_22to4way_21 75_4way_21to4way_30"/>
    </vehicle>
    <vehicle id="43" depart="95.56">
        <route edges="87_4way_31to4way_30 85_4way_30to4way_29 83_4way_29to4way_28 15_4way_28to3way_27 14_3way_27to3way_36"/>
    </vehicle>
    <vehicle id="44" depart="97.78">
        <route edges="138_4way_67to4way_68 139_4way_68to4way_69 140_4way_69to4way_70 42_4way_70to3way_71 36_3way_71to3way_62 30_3way_62to3way_53 24_3way_53to3way_44"/>
    </vehicle>
    <vehicle id="45" depart="100.00">
        <route edges="55_3way_79to4way_70 140_4way_70to4way_69 139_4way_69to4way_68 138_4way_68to4way_67 137_4way_67to4way_66 136_4way_66to4way_65 135_4way_65to4way_64 39_4way_64to3way_63 32_3way_63to3way_54"/>
    </vehicle>
    <vehicle id="46" depart="102.22">
        <route edges="11_3way_2to4way_11 60_4way_11to4way_20 73_4way_20to4way_29 86_4way_29to4way_38 98_4way_38to4way_39"/>
    </vehicle>
    <vehicle id="47" depart="104.44">
        <route edges="3_3way_1to4way_10 57_4way_10to4way_11 59_4way_11to4way_12 61_4way_12to4way_13 63_4way_13to4way_14 65_4way_14to4way_15"/>
    </vehicle>
    <vehicle id="48" depart="106.67">
        <route edges="43_3way_73to3way_74 45_3way_74to3way_75 47_3way_75to3way_76 50_3way_76to4way_67 129_4way_67to4way_58 116_4way_58to4way_49 103_4way_49to4way_40"/>
    </vehicle>
    <vehicle id="49" depart="108.89">
        <route edges="108_4way_52to4way_43 95_4way_43to4way_34 82_4way_34to4way_25 69_4way_25to4way_16 67_4way_16to4way_15 65_4way_15to4way_14"/>
    </vehicle>
    <vehicle id="50" depart="111.11">
        <route edges="88_4way_30to4way_39 101_4way_39to4way_48 114_4way_48to4way_57 127_4way_57to4way_66 48_4way_66to3way_75 45_3way_75to3way_74"/>
    </vehicle>
    <vehicle id="51" depart="113.33">
        <route edges="88_4way_30to4way_39"/>
    </vehicle>
    <vehicle id="52" depart="115.55">
        <route edges="106_4way_43to4way_42 104_4way_42to4way_41 105_4way_41to4way_50 118_4way_50to4way_59 131_4way_59to4way_68 52_4way_68to3way_77 49_3way_77to3way_76"/>
    </vehicle>
    <vehicle id="53" depart="117.78">
        <route edges="91_4way_33to4way_32 89_4way_32to4way_31 87_4way_31to4way_30 85_4way_30to4way_29 83_4way_29to4way_28 84_4way_28to4way_37 97_4way_37to4way_46 110_4way_46to4way_55 123_4way_55to4way_64"/>
    </vehicle>
    <vehicle id="54" depart="120.00">
        <route edges="26_3way_54to3way_45 27_3way_45to4way_46 109_4way_46to4way_47 111_4way_47to4way_48 113_4way_48to4way_49"/>
    </vehicle>
    <vehicle id="55" depart="122.22">
        <route edges="84_4way_28to4way_37 97_4way_37to4way_46 110_4way_46to4way_55 123_4way_55to4way_64 135_4way_64to4way_65 136_4way_65to4way_66 137_4way_66to4way_67 138_4way_67to4way_68"/>
    </vehicle>
    <vehicle id="56" depart="124.44">
        <route edges="88_4way_30to4way_39 101_4way_39to4way_48 113_4way_48to4way_49 115_4way_49to4way_50 117_4way_50to4way_51"/>
    </vehicle>
    <vehicle id="57" depart="126.67">
        <route edges="115_4way_49to4way_50 117_4way_50to4way_51"/>
    </vehicle>
    <vehicle id="58" depart="128.89">
        <route edges="99_4way_38to4way_47 112_4way_47to4way_56 125_4way_56to4way_65 136_4way_65to4way_66 137_4way_66to4way_67"/>
    </vehicle>
    <vehicle id="59" depart="131.11">
        <route edges="64_4way_13to4way_22 77_4way_22to4way_31 90_4way_31to4way_40 102_4way_40to4way_41 104_4way_41to4way_42 106_4way_42to4way_43"/>
    </vehicle>
    <vehicle id="60" depart="133.33">
        <route edges="111_4way_48to4way_47 109_4way_47to4way_46"/>
    </vehicle>
    <vehicle id="61" depart="135.55">
        <route edges="27_3way_45to4way_46 109_4way_46to4way_47 99_4way_47to4way_38 86_4way_38to4way_29 73_4way_29to4way_20 60_4way_20to4way_11 11_4way_11to3way_2"/>
    </vehicle>
    <vehicle id="62" depart="137.78">
        <route edges="33_3way_54to4way_55 122_4way_55to4way_56 124_4way_56to4way_57 126_4way_57to4way_58 116_4way_58to4way_49 103_4way_49to4way_40 90_4way_40to4way_31 77_4way_31to4way_22"/>
    </vehicle>
    <vehicle id="63" depart="140.00">
        <route edges="122_4way_55to4way_56 124_4way_56to4way_57"/>
    </vehicle>
    <vehicle id="64" depart="142.22">
        <route edges="33_3way_54to4way_55 122_4way_55to4way_56 124_4way_56to4way_57 126_4way_57to4way_58 128_4way_58to4way_59 130_4way_59to4way_60 132_4way_60to4way_61 37_4way_61to3way_62 30_3way_62to3way_53 24_3way_53to3way_44"/>
    </vehicle>
    <vehicle id="65" depart="144.44">
        <route edges="88_4way_39to4way_30 75_4way_30to4way_21"/>
    </vehicle>
    <vehicle id="66" depart="146.67">
        <route edges="74_4way_22to4way_21 75_4way_21to4way_30"/>
    </vehicle>
    <vehicle id="67" depart="148.89">
        <route edges="122_4way_55to4way_56 124_4way_56to4way_57 126_4way_57to4way_58 116_4way_58to4way_49 103_4way_49to4way_40 90_4way_40to4way_31 77_4way_31to4way_22"/>
    </vehicle>
    <vehicle id="68" depart="151.11">
        <route edges="58_4way_10to4way_19 71_4way_19to4way_28 84_4way_28to4way_37 97_4way_37to4way_46 109_4way_46to4way_47 111_4way_47to4way_48 113_4way_48to4way_49 115_4way_49to4way_50 118_4way_50to4way_59 131_4way_59to4way_68 139_4way_68to4way_69"/>
    </vehicle>
    <vehicle id="69" depart="153.33">
        <route edges="130_4way_60to4way_59 128_4way_59to4way_58 126_4way_58to4way_57 124_4way_57to4way_56 122_4way_56to4way_55"/>
    </vehicle>
    <vehicle id="70" depart="155.55">
        <route edges="129_4way_58to4way_67 138_4way_67to4way_68"/>
    </vehicle>
    <vehicle id="71" depart="157.78">
        <route edges="6_4way_16to3way_17"/>
    </vehicle>
    <vehicle id="72" depart="160.00">
        <route edges="134_4way_70to4way_61 132_4way_61to4way_60 130_4way_60to4way_59 128_4way_59to4way_58"/>
    </vehicle>
    <vehicle id="73" depart="162.22">
        <route edges="107_4way_42to4way_51 119_4way_51to4way_52 31_4way_52to3way_53"/>
    </vehicle>
    <vehicle id="74" depart="164.44">
        <route edges="126_4way_57to4way_58 128_4way_58to4way_59 130_4way_59to4way_60 132_4way_60to4way_61 37_4way_61to3way_62"/>
    </vehicle>
    <vehicle id="75" depart="166.67">
        <route edges="93_4way_33to4way_34 19_4way_34to3way_35"/>
    </vehicle>
    <vehicle id="76" depart="168.89">
        <route edges="75_4way_21to4way_30 88_4way_30to4way_39 101_4way_39to4way_48 114_4way_48to4way_57 127_4way_57to4way_66 137_4way_66to4way_67 138_4way_67to4way_68"/>
    </vehicle>
    <vehicle id="77" depart="171.11">
        <route edges="28_3way_6to3way_5 22_3way_5to3way_4 16_3way_4to3way_3 10_3way_3to3way_2 1_3way_2to3way_1 3_3way_1to4way_10 58_4way_10to4way_19 71_4way_19to4way_28 84_4way_28to4way_37"/>
    </vehicle>
    <vehicle id="78" depart="173.33">
        <route edges="135_4way_64to4way_65 136_4way_65to4way_66 137_4way_66to4way_67 129_4way_67to4way_58 116_4way_58to4way_49"/>
    </vehicle>
    <vehicle id="79" depart="175.55">
        <route edges="104_4way_42to4way_41 102_4way_41to4way_40 103_4way_40to4way_49 116_4way_49to4way_58 129_4way_58to4way_67"/>
    </vehicle>
    <vehicle id="80" depart="177.78">
        <route edges="94_4way_33to4way_42 107_4way_42to4way_51 120_4way_51to4way_60 132_4way_60to4way_61"/>
    </vehicle>
    <vehicle id="81" depart="180.00">
        <route edges="2_3way_9to3way_1"/>
    </vehicle>
    <vehicle id="82" depart="182.22">
        <route edges="36_3way_71to3way_62 37_3way_62to4way_61 132_4way_61to4way_60 130_4way_60to4way_59 118_4way_59to4way_50 105_4way_50to4way_41 92_4way_41to4way_32 79_4way_32to4way_23 66_4way_23to4way_14"/>
    </vehicle>
    <vehicle id="83" depart="184.44">
        <route edges="29_3way_5to4way_14 66_4way_14to4way_23 79_4way_23to4way_32 92_4way_32to4way_41 105_4way_41to4way_50 118_4way_50to4way_59 128_4way_59to4way_58 126_4way_58to4way_57 124_4way_57to4way_56"/>
    </vehicle>
    <vehicle id="84" depart="186.67">
        <route edges="11_3way_2to4way_11 60_4way_11to4way_20 73_4way_20to4way_29 86_4way_29to4way_38 99_4way_38to4way_47 112_4way_47to4way_56 125_4way_56to4way_65 46_4way_65to3way_74 45_3way_74to3way_75 47_3way_75to3way_76 49_3way_76to3way_77 51_3way_77to3way_78"/>
    </vehicle>
    <vehicle id="85" depart="188.89">
        <route edges="49_3way_76to3way_77 52_3way_77to4way_68 131_4way_68to4way_59"/>
    </vehicle>
    <vehicle id="86" depart="191.11">
        <route edges="80_4way_25to4way_24 78_4way_24to4way_23 76_4way_23to4way_22 74_4way_22to4way_21 72_4way_21to4way_20 70_4way_20to4way_19 9_4way_19to3way_18"/>
    </vehicle>
    <vehicle id="87" depart="193.33">
        <route edges="17_3way_3to4way_12 62_4way_12to4way_21 75_4way_21to4way_30 88_4way_30to4way_39 101_4way_39to4way_48 114_4way_48to4way_57 126_4way_57to4way_58"/>
    </vehicle>
    <vehicle id="88" depart="195.55">
        <route edges="126_4way_57to4way_58 128_4way_58to4way_59 130_4way_59to4way_60 132_4way_60to4way_61 37_4way_61to3way_62"/>
    </vehicle>
    <vehicle id="89" depart="197.78">
        <route edges="48_3way_75to4way_66 127_4way_66to4way_57 114_4way_57to4way_48 101_4way_48to4way_39 88_4way_39to4way_30"/>
    </vehicle>
    <vehicle id="90" depart="200.00">
        <route edges="126_4way_57to4way_58 128_4way_58to4way_59 130_4way_59to4way_60 132_4way_60to4way_61 121_4way_61to4way_52 108_4way_52to4way_43 95_4way_43to4way_34 82_4way_34to4way_25"/>
    </vehicle>
    <vehicle id="91" depart="202.22">
        <route edges="98_4way_39to4way_38 99_4way_38to4way_47 112_4way_47to4way_56 125_4way_56to4way_65"/>
    </vehicle>
    <vehicle id="92" depart="204.44">
        <route edges="21_3way_36to4way_37 84_4way_37to4way_28 71_4way_28to4way_19 58_4way_19to4way_10 57_4way_10to4way_11 59_4way_11to4way_12 61_4way_12to4way_13 63_4way_13to4way_14"/>
    </vehicle>
    <vehicle id="93" depart="206.67">
        <route edges="52_3way_77to4way_68 131_4way_68to4way_59 118_4way_59to4way_50 105_4way_50to4way_41 92_4way_41to4way_32 89_4way_32to4way_31 87_4way_31to4way_30 85_4way_30to4way_29 83_4way_29to4way_28"/>
    </vehicle>
    <vehicle id="94" depart="208.89">
        <route edges="95_4way_34to4way_43 108_4way_43to4way_52 121_4way_52to4way_61 134_4way_61to4way_70 55_4way_70to3way_79"/>
    </vehicle>
    <vehicle id="95" depart="211.11">
        <route edges="85_4way_29to4way_30 87_4way_30to4way_31 89_4way_31to4way_32 79_4way_32to4way_23 66_4way_23to4way_14"/>
    </vehicle>
    <vehicle id="96" depart="213.33">
        <route edges="45_3way_74to3way_75 47_3way_75to3way_76"/>
    </vehicle>
    <vehicle id="97" depart="215.55">
        <route edges="122_4way_55to4way_56 124_4way_56to4way_57 126_4way_57to4way_58 128_4way_58to4way_59 118_4way_59to4way_50 105_4way_50to4way_41 92_4way_41to4way_32 79_4way_32to4way_23 66_4way_23to4way_14 29_4way_14to3way_5"/>
    </vehicle>
    <vehicle id="98" depart="217.78">
        <route edges="103_4way_49to4way_40 100_4way_40to4way_39 98_4way_39to4way_38 96_4way_38to4way_37 21_4way_37to3way_36"/>
    </vehicle>
    <vehicle id="99" depart="220.00">
        <route edges="36_3way_71to3way_62 30_3way_62to3way_53 24_3way_53to3way_44 25_3way_44to4way_43 106_4way_43to4way_42 104_4way_42to4way_41 102_4way_41to4way_40 100_4way_40to4way_39 88_4way_39to4way_30 75_4way_30to4way_21 72_4way_21to4way_20 70_4way_20to4way_19"/>
    </vehicle>
    <vehicle id="100" depart="222.22">
        <route edges="28_3way_6to3way_5 22_3way_5to3way_4 16_3way_4to3way_3 10_3way_3to3way_2"/>
    </vehicle>
    <vehicle id="101" depart="224.44">
        <route edges="135_4way_64to4way_65 136_4way_65to4way_66 137_4way_66to4way_67 129_4way_67to4way_58 116_4way_58to4way_49 103_4way_49to4way_40"/>
    </vehicle>
    <vehicle id="102" depart="226.66">
        <route edges="139_4way_69to4way_68 138_4way_68to4way_67 137_4way_67to4way_66 136_4way_66to4way_65"/>
    </vehicle>
    <vehicle id="103" depart="228.89">
        <route edges="51_3way_77to3way_78 53_3way_78to3way_79 55_3way_79to4way_70"/>
    </vehicle>
    <vehicle id="104" depart="231.11">
        <route edges="43_3way_73to3way_74 45_3way_74to3way_75 47_3way_75to3way_76 50_3way_76to4way_67 129_4way_67to4way_58 116_4way_58to4way_49 103_4way_49to4way_40 90_4way_40to4way_31"/>
    </vehicle>
    <vehicle id="105" depart="233.33">
        <route edges="79_4way_32to4way_23 66_4way_23to4way_14 29_4way_14to3way_5 22_3way_5to3way_4 16_3way_4to3way_3 10_3way_3to3way_2"/>
    </vehicle>
    <vehicle id="106" depart="235.55">
        <route edges="9_4way_19to3way_18 7_3way_18to3way_27 14_3way_27to3way_36"/>
    </vehicle>
    <vehicle id="107" depart="237.78">
        <route edges="65_4way_15to4way_14 63_4way_14to4way_13 61_4way_13to4way_12 62_4way_12to4way_21 75_4way_21to4way_30 88_4way_30to4way_39"/>
    </vehicle>
    <vehicle id="108" depart="240.00">
        <route edges="117_4way_51to4way_50 115_4way_50to4way_49 113_4way_49to4way_48 114_4way_48to4way_57 127_4way_57to4way_66"/>
    </vehicle>
    <vehicle id="109" depart="242.22">
        <route edges="128_4way_59to4way_58 126_4way_58to4way_57 124_4way_57to4way_56 122_4way_56to4way_55 33_4way_55to3way_54 32_3way_54to3way_63"/>
    </vehicle>
    <vehicle id="110" depart="244.44">
        <route edges="108_4way_43to4way_52 121_4way_52to4way_61 134_4way_61to4way_70 55_4way_70to3way_79"/>
    </vehicle>
    <vehicle id="111" depart="246.66">
        <route edges="52_3way_77to4way_68 131_4way_68to4way_59 118_4way_59to4way_50 105_4way_50to4way_41 102_4way_41to4way_40"/>
    </vehicle>
    <vehicle id="112" depart="248.89">
        <route edges="66_4way_14to4way_23 79_4way_23to4way_32 91_4way_32to4way_33 93_4way_33to4way_34"/>
    </vehicle>
    <vehicle id="113" depart="251.11">
        <route edges="49_3way_77to3way_76 47_3way_76to3way_75 45_3way_75to3way_74"/>
    </vehicle>
    <vehicle id="114" depart="253.33">
        <route edges="11_3way_2to4way_11 60_4way_11to4way_20 73_4way_20to4way_29 86_4way_29to4way_38 99_4way_38to4way_47"/>
    </vehicle>
    <vehicle id="115" depart="255.55">
        <route edges="110_4way_46to4way_55 123_4way_55to4way_64 44_4way_64to3way_73 43_3way_73to3way_74 45_3way_74to3way_75 47_3way_75to3way_76 49_3way_76to3way_77 51_3way_77to3way_78"/>
    </vehicle>
    <vehicle id="116" depart="257.78">
        <route edges="57_4way_11to4way_10"/>
    </vehicle>
    <vehicle id="117" depart="260.00">
        <route edges="101_4way_39to4way_48 114_4way_48to4way_57 127_4way_57to4way_66 136_4way_66to4way_65 135_4way_65to4way_64 39_4way_64to3way_63"/>
    </vehicle>
    <vehicle id="118" depart="262.22">
        <route edges="19_3way_35to4way_34 93_4way_34to4way_33 94_4way_33to4way_42"/>
    </vehicle>
    <vehicle id="119" depart="264.44">
        <route edges="25_3way_44to4way_43 106_4way_43to4way_42 104_4way_42to4way_41 102_4way_41to4way_40 100_4way_40to4way_39 98_4way_39to4way_38 99_4way_38to4way_47"/>
    </vehicle>
    <vehicle id="120" depart="266.66">
        <route edges="84_4way_28to4way_37 97_4way_37to4way_46 110_4way_46to4way_55 123_4way_55to4way_64 135_4way_64to4way_65 136_4way_65to4way_66 137_4way_66to4way_67"/>
    </vehicle>
    <vehicle id="121" depart="268.89">
        <route edges="55_3way_79to4way_70 134_4way_70to4way_61 121_4way_61to4way_52 108_4way_52to4way_43 95_4way_43to4way_34 82_4way_34to4way_25 80_4way_25to4way_24 78_4way_24to4way_23 76_4way_23to4way_22 74_4way_22to4way_21"/>
    </vehicle>
    <vehicle id="122" depart="271.11">
        <route edges="85_4way_29to4way_30 87_4way_30to4way_31 89_4way_31to4way_32 91_4way_32to4way_33 93_4way_33to4way_34 19_4way_34to3way_35 18_3way_35to3way_44 24_3way_44to3way_53"/>
    </vehicle>
    <vehicle id="123" depart="273.33">
        <route edges="82_4way_34to4way_25 69_4way_25to4way_16 67_4way_16to4way_15 65_4way_15to4way_14 63_4way_14to4way_13 61_4way_13to4way_12 59_4way_12to4way_11 57_4way_11to4way_10 56_4way_10to3way_9"/>
    </vehicle>
    <vehicle id="124" depart="275.55">
        <route edges="79_4way_23to4way_32"/>
    </vehicle>
    <vehicle id="125" depart="277.78">
        <route edges="34_3way_7to3way_6 35_3way_6to4way_15 68_4way_15to4way_24 81_4way_24to4way_33 94_4way_33to4way_42 107_4way_42to4way_51 120_4way_51to4way_60 133_4way_60to4way_69"/>
    </vehicle>
    <vehicle id="126" depart="280.00">
        <route edges="88_4way_39to4way_30 75_4way_30to4way_21 62_4way_21to4way_12"/>
    </vehicle>
    <vehicle id="127" depart="282.22">
        <route edges="33_3way_54to4way_55 122_4way_55to4way_56 124_4way_56to4way_57 126_4way_57to4way_58 128_4way_58to4way_59 130_4way_59to4way_60 132_4way_60to4way_61 121_4way_61to4way_52"/>
    </vehicle>
    <vehicle id="128" depart="284.44">
        <route edges="4_3way_17to3way_26 12_3way_26to3way_35 18_3way_35to3way_44 24_3way_44to3way_53 30_3way_53to3way_62 36_3way_62to3way_71 41_3way_71to3way_79 53_3way_79to3way_78 51_3way_78to3way_77 49_3way_77to3way_76 47_3way_76to3way_75"/>
    </vehicle>
    <vehicle id="129" depart="286.66">
        <route edges="69_4way_25to4way_16 40_4way_16to3way_7 34_3way_7to3way_6 28_3way_6to3way_5 22_3way_5to3way_4 16_3way_4to3way_3 10_3way_3to3way_2"/>
    </vehicle>
    <vehicle id="130" depart="288.89">
        <route edges="105_4way_50to4way_41 92_4way_41to4way_32 89_4way_32to4way_31"/>
    </vehicle>
    <vehicle id="131" depart="291.11">
        <route edges="98_4way_39to4way_38 96_4way_38to4way_37 21_4way_37to3way_36 20_3way_36to3way_45 26_3way_45to3way_54 32_3way_54to3way_63"/>
    </vehicle>
    <vehicle id="132" depart="293.33">
        <route edges="85_4way_29to4way_30 87_4way_30to4way_31 89_4way_31to4way_32 79_4way_32to4way_23 66_4way_23to4way_14 29_4way_14to3way_5"/>
    </vehicle>
    <vehicle id="133" depart="295.55">
        <route edges="120_4way_51to4way_60 132_4way_60to4way_61"/>
    </vehicle>
    <vehicle id="134" depart="297.78">
        <route edges="108_4way_52to4way_43 106_4way_43to4way_42 104_4way_42to4way_41 102_4way_41to4way_40 100_4way_40to4way_39 98_4way_39to4way_38 96_4way_38to4way_37 21_4way_37to3way_36 14_3way_36to3way_27 7_3way_27to3way_18"/>
    </vehicle>
    <vehicle id="135" depart="300.00">
        <route edges="108_4way_43to4way_52 121_4way_52to4way_61 134_4way_61to4way_70 55_4way_70to3way_79 53_3way_79to3way_78 51_3way_78to3way_77 49_3way_77to3way_76"/>
    </vehicle>
    <vehicle id="136" depart="302.22">
        <route edges="118_4way_59to4way_50 105_4way_50to4way_41 92_4way_41to4way_32 91_4way_32to4way_33 93_4way_33to4way_34"/>
    </vehicle>
    <vehicle id="137" depart="304.44">
        <route edges="117_4way_51to4way_50 115_4way_50to4way_49 113_4way_49to4way_48 114_4way_48to4way_57 127_4way_57to4way_66"/>
    </vehicle>
    <vehicle id="138" depart="306.66">
        <route edges="91_4way_33to4way_32 89_4way_32to4way_31 87_4way_31to4way_30 85_4way_30to4way_29 83_4way_29to4way_28 15_4way_28to3way_27 14_3way_27to3way_36 20_3way_36to3way_45 26_3way_45to3way_54"/>
    </vehicle>
    <vehicle id="139" depart="308.89">
        <route edges="11_3way_2to4way_11 60_4way_11to4way_20 73_4way_20to4way_29 86_4way_29to4way_38 99_4way_38to4way_47 112_4way_47to4way_56 124_4way_56to4way_57"/>
    </vehicle>
    <vehicle id="140" depart="311.11">
        <route edges="24_3way_53to3way_44 25_3way_44to4way_43 106_4way_43to4way_42 104_4way_42to4way_41 102_4way_41to4way_40 100_4way_40to4way_39 98_4way_39to4way_38 96_4way_38to4way_37 21_4way_37to3way_36 14_3way_36to3way_27 7_3way_27to3way_18"/>
    </vehicle>
    <vehicle id="141" depart="313.33">
        <route edges="73_4way_20to4way_29 86_4way_29to4way_38 99_4way_38to4way_47 112_4way_47to4way_56 124_4way_56to4way_57 126_4way_57to4way_58 128_4way_58to4way_59 130_4way_59to4way_60 132_4way_60to4way_61"/>
    </vehicle>
    <vehicle id="142" depart="315.55">
        <route edges="61_4way_13to4way_12 59_4way_12to4way_11 60_4way_11to4way_20 73_4way_20to4way_29 86_4way_29to4way_38"/>
    </vehicle>
    <vehicle id="143" depart="317.78">
        <route edges="18_3way_44to3way_35 12_3way_35to3way_26 4_3way_26to3way_17 6_3way_17to4way_16 67_4way_16to4way_15 65_4way_15to4way_14 63_4way_14to4way_13 61_4way_13to4way_12 59_4way_12to4way_11 57_4way_11to4way_10"/>
    </vehicle>
    <vehicle id="144" depart="320.00">
        <route edges="55_3way_79to4way_70 134_4way_70to4way_61 121_4way_61to4way_52 108_4way_52to4way_43 95_4way_43to4way_34 82_4way_34to4way_25 69_4way_25to4way_16 67_4way_16to4way_15"/>
    </vehicle>
    <vehicle id="145" depart="322.22">
        <route edges="50_3way_76to4way_67 129_4way_67to4way_58 116_4way_58to4way_49 113_4way_49to4way_48 111_4way_48to4way_47"/>
    </vehicle>
    <vehicle id="146" depart="324.44">
        <route edges="106_4way_42to4way_43 25_4way_43to3way_44 18_3way_44to3way_35 12_3way_35to3way_26 4_3way_26to3way_17"/>
    </vehicle>
    <vehicle id="147" depart="326.66">
        <route edges="108_4way_43to4way_52"/>
    </vehicle>
    <vehicle id="148" depart="328.89">
        <route edges="105_4way_41to4way_50 118_4way_50to4way_59 131_4way_59to4way_68 139_4way_68to4way_69"/>