<routes xmlns:xsi="http://www.w3.org/2001/XMLSchema-instance" xsi:noNamespaceSchemaLocation="http://sumo.dlr.de/xsd/routes_file.xsd">
<trip id="0" depart="0.0" fromJunction="4way_E07" toJunction="4way_D04"/>
<trip id="1" depart="0.28" fromJunction="4way_D04" toJunction="4way_D08"/>
<trip id="2" depart="0.56" fromJunction="3way_E02" toJunction="4way_B09"/>
<trip id="3" depart="0.8400000000000001" fromJunction="4way_G02" toJunction="3way_C03"/>
<trip id="4" depart="1.12" fromJunction="4way_B06" toJunction="4way_G07"/>
<trip id="5" depart="1.4000000000000001" fromJunction="4way_D03" toJunction="4way_F04"/>
<trip id="6" depart="1.6800000000000002" fromJunction="4way_G04" toJunction="3way_D05"/>
<trip id="7" depart="1.9600000000000002" fromJunction="3way_B10" toJunction="3way_A09"/>
<trip id="8" depart="2.24" fromJunction="4way_F06" toJunction="3way_A05"/>
<trip id="9" depart="2.5200000000000005" fromJunction="4way_F09" toJunction="4way_F03"/>
<trip id="10" depart="2.8000000000000003" fromJunction="4way_F04" toJunction="4way_G08"/>
<trip id="11" depart="3.08" fromJunction="4way_F03" toJunction="3way_C06"/>
<trip id="12" depart="3.3600000000000003" fromJunction="3way_E02" toJunction="3way_D10"/>
<trip id="13" depart="3.6400000000000006" fromJunction="4way_G06" toJunction="3way_F10"/>
<trip id="14" depart="3.9200000000000004" fromJunction="4way_B08" toJunction="3way_D01"/>
<trip id="15" depart="4.2" fromJunction="4way_F02" toJunction="3way_H02"/>
<trip id="16" depart="4.48" fromJunction="3way_D05" toJunction="3way_C04"/>
<trip id="17" depart="4.760000000000001" fromJunction="4way_D09" toJunction="3way_A05"/>
<trip id="18" depart="5.040000000000001" fromJunction="4way_E05" toJunction="4way_G05"/>
<trip id="19" depart="5.32" fromJunction="3way_C03" toJunction="4way_B04"/>
<trip id="20" depart="5.6000000000000005" fromJunction="3way_A08" toJunction="4way_E06"/>
<trip id="21" depart="5.880000000000001" fromJunction="3way_E10" toJunction="3way_H06"/>
<trip id="22" depart="6.16" fromJunction="3way_B05" toJunction="3way_F00"/>
<trip id="23" depart="6.44" fromJunction="3way_C03" toJunction="4way_D06"/>
<trip id="24" depart="6.720000000000001" fromJunction="3way_C10" toJunction="4way_G09"/>
<trip id="25" depart="7.000000000000001" fromJunction="3way_G10" toJunction="3way_H06"/>
<trip id="26" depart="7.280000000000001" fromJunction="3way_H03" toJunction="4way_E03"/>
<trip id="27" depart="7.5600000000000005" fromJunction="3way_H04" toJunction="3way_C06"/>
<trip id="28" depart="7.840000000000001" fromJunction="3way_C10" toJunction="3way_G10"/>
<trip id="29" depart="8.120000000000001" fromJunction="3way_E10" toJunction="4way_E03"/>
<trip id="30" depart="8.4" fromJunction="3way_B05" toJunction="3way_H07"/>
<trip id="31" depart="8.680000000000001" fromJunction="3way_B10" toJunction="4way_F06"/>
<trip id="32" depart="8.96" fromJunction="3way_B10" toJunction="4way_F07"/>
<trip id="33" depart="9.24" fromJunction="3way_C06" toJunction="4way_G08"/>
<trip id="34" depart="9.520000000000001" fromJunction="4way_D08" toJunction="4way_G08"/>
<trip id="35" depart="9.8" fromJunction="3way_A06" toJunction="4way_E09"/>
<trip id="36" depart="10.080000000000002" fromJunction="3way_D10" toJunction="3way_H01"/>
<trip id="37" depart="10.360000000000001" fromJunction="3way_D10" toJunction="3way_G00"/>
<trip id="38" depart="10.64" fromJunction="4way_B08" toJunction="3way_F00"/>
<trip id="39" depart="10.920000000000002" fromJunction="4way_E05" toJunction="3way_A08"/>
<trip id="40" depart="11.200000000000001" fromJunction="3way_H02" toJunction="3way_D05"/>
<trip id="41" depart="11.48" fromJunction="3way_B10" toJunction="3way_D01"/>
<trip id="42" depart="11.760000000000002" fromJunction="4way_G04" toJunction="4way_D06"/>
<trip id="43" depart="12.040000000000001" fromJunction="4way_E04" toJunction="3way_F00"/>
<trip id="44" depart="12.32" fromJunction="4way_E07" toJunction="3way_E10"/>
<trip id="45" depart="12.600000000000001" fromJunction="3way_H08" toJunction="3way_H01"/>
<trip id="46" depart="12.88" fromJunction="3way_A05" toJunction="4way_D07"/>
<trip id="47" depart="13.160000000000002" fromJunction="3way_A04" toJunction="4way_F06"/>
<trip id="48" depart="13.440000000000001" fromJunction="3way_H02" toJunction="4way_E04"/>
<trip id="49" depart="13.72" fromJunction="4way_G07" toJunction="4way_E08"/>
<trip id="50" depart="14.000000000000002" fromJunction="4way_D06" toJunction="3way_H04"/>
<trip id="51" depart="14.280000000000001" fromJunction="4way_D06" toJunction="4way_D07"/>
<trip id="52" depart="14.560000000000002" fromJunction="4way_G06" toJunction="3way_H05"/>
<trip id="53" depart="14.840000000000002" fromJunction="4way_F07" toJunction="3way_C04"/>
<trip id="54" depart="15.120000000000001" fromJunction="3way_G00" toJunction="4way_E06"/>
<trip id="55" depart="15.400000000000002" fromJunction="4way_B07" toJunction="4way_F05"/>
<trip id="56" depart="15.680000000000001" fromJunction="4way_D06" toJunction="4way_G01"/>
<trip id="57" depart="15.96" fromJunction="4way_E05" toJunction="4way_G01"/>
<trip id="58" depart="16.240000000000002" fromJunction="4way_C09" toJunction="4way_E08"/>
<trip id="59" depart="16.520000000000003" fromJunction="3way_E02" toJunction="4way_G06"/>
<trip id="60" depart="16.8" fromJunction="4way_D08" toJunction="4way_B09"/>
<trip id="61" depart="17.080000000000002" fromJunction="3way_G00" toJunction="3way_A05"/>
<trip id="62" depart="17.360000000000003" fromJunction="3way_H01" toJunction="4way_E03"/>
<trip id="63" depart="17.64" fromJunction="4way_B09" toJunction="4way_D09"/>
<trip id="64" depart="17.92" fromJunction="3way_G00" toJunction="3way_E10"/>
<trip id="65" depart="18.200000000000003" fromJunction="4way_D07" toJunction="4way_D06"/>
<trip id="66" depart="18.48" fromJunction="4way_E03" toJunction="4way_D06"/>
<trip id="67" depart="18.76" fromJunction="3way_C03" toJunction="3way_E02"/>
<trip id="68" depart="19.040000000000003" fromJunction="3way_B05" toJunction="4way_G02"/>
<trip id="69" depart="19.32" fromJunction="4way_G02" toJunction="3way_C03"/>
<trip id="70" depart="19.6" fromJunction="4way_E06" toJunction="4way_F05"/>
<trip id="71" depart="19.880000000000003" fromJunction="4way_G04" toJunction="3way_C10"/>
<trip id="72" depart="20.160000000000004" fromJunction="4way_G09" toJunction="4way_E07"/>
<trip id="73" depart="20.44" fromJunction="4way_F09" toJunction="3way_F10"/>
<trip id="74" depart="20.720000000000002" fromJunction="4way_D09" toJunction="3way_G10"/>
<trip id="75" depart="21.000000000000004" fromJunction="4way_F08" toJunction="3way_D10"/>
<trip id="76" depart="21.28" fromJunction="3way_D05" toJunction="4way_F05"/>
<trip id="77" depart="21.560000000000002" fromJunction="3way_A08" toJunction="4way_B08"/>
<trip id="78" depart="21.840000000000003" fromJunction="3way_C04" toJunction="4way_E06"/>
<trip id="79" depart="22.12" fromJunction="4way_F09" toJunction="4way_E07"/>
<trip id="80" depart="22.400000000000002" fromJunction="4way_F08" toJunction="4way_G08"/>
<trip id="81" depart="22.680000000000003" fromJunction="4way_B04" toJunction="3way_A04"/>
<trip id="82" depart="22.96" fromJunction="3way_H09" toJunction="4way_E08"/>
<trip id="83" depart="23.240000000000002" fromJunction="3way_A07" toJunction="3way_D01"/>
<trip id="84" depart="23.520000000000003" fromJunction="3way_A05" toJunction="3way_H07"/>
<trip id="85" depart="23.8" fromJunction="3way_H05" toJunction="4way_F04"/>
<trip id="86" depart="24.080000000000002" fromJunction="4way_G04" toJunction="3way_B03"/>
<trip id="87" depart="24.360000000000003" fromJunction="3way_A06" toJunction="4way_E06"/>
<trip id="88" depart="24.64" fromJunction="4way_D09" toJunction="3way_G10"/>
<trip id="89" depart="24.92" fromJunction="3way_H04" toJunction="4way_D06"/>
<trip id="90" depart="25.200000000000003" fromJunction="4way_D09" toJunction="4way_G05"/>
<trip id="91" depart="25.480000000000004" fromJunction="4way_D07" toJunction="4way_D03"/>
<trip id="92" depart="25.76" fromJunction="3way_F00" toJunction="4way_E08"/>
<trip id="93" depart="26.040000000000003" fromJunction="3way_H06" toJunction="4way_B07"/>
<trip id="94" depart="26.320000000000004" fromJunction="4way_G05" toJunction="3way_H08"/>
<trip id="95" depart="26.6" fromJunction="4way_C08" toJunction="4way_E09"/>
<trip id="96" depart="26.880000000000003" fromJunction="3way_H03" toJunction="3way_H05"/>
<trip id="97" depart="27.160000000000004" fromJunction="3way_C03" toJunction="3way_A08"/>
<trip id="98" depart="27.44" fromJunction="4way_E06" toJunction="3way_F00"/>
<trip id="99" depart="27.720000000000002" fromJunction="3way_H09" toJunction="4way_B06"/>
<trip id="100" depart="28.000000000000004" fromJunction="3way_A08" toJunction="3way_A05"/>
<trip id="101" depart="28.28" fromJunction="3way_C04" toJunction="4way_E04"/>
<trip id="102" depart="28.560000000000002" fromJunction="4way_G02" toJunction="4way_D03"/>
<trip id="103" depart="28.840000000000003" fromJunction="3way_H06" toJunction="4way_G09"/>
<trip id="104" depart="29.120000000000005" fromJunction="3way_H03" toJunction="4way_E03"/>
<trip id="105" depart="29.400000000000002" fromJunction="4way_F01" toJunction="3way_A05"/>
<trip id="106" depart="29.680000000000003" fromJunction="4way_B06" toJunction="3way_E00"/>
<trip id="107" depart="29.960000000000004" fromJunction="4way_F06" toJunction="4way_D07"/>
<trip id="108" depart="30.240000000000002" fromJunction="4way_F09" toJunction="4way_E01"/>
<trip id="109" depart="30.520000000000003" fromJunction="4way_F04" toJunction="3way_H02"/>
<trip id="110" depart="30.800000000000004" fromJunction="4way_G06" toJunction="3way_H08"/>
<trip id="111" depart="31.080000000000002" fromJunction="3way_H06" toJunction="4way_E05"/>
<trip id="112" depart="31.360000000000003" fromJunction="4way_E08" toJunction="4way_G06"/>
<trip id="113" depart="31.640000000000004" fromJunction="3way_H06" toJunction="3way_H03"/>
<trip id="114" depart="31.92" fromJunction="3way_A05" toJunction="3way_D01"/>
<trip id="115" depart="32.2" fromJunction="4way_B09" toJunction="3way_H07"/>
<trip id="116" depart="32.480000000000004" fromJunction="3way_C06" toJunction="3way_B05"/>
<trip id="117" depart="32.760000000000005" fromJunction="4way_D07" toJunction="3way_H02"/>
<trip id="118" depart="33.040000000000006" fromJunction="3way_D10" toJunction="4way_F09"/>
<trip id="119" depart="33.32" fromJunction="3way_E10" toJunction="3way_D01"/>
<trip id="120" depart="33.6" fromJunction="4way_B07" toJunction="4way_E07"/>
<trip id="121" depart="33.88" fromJunction="3way_H08" toJunction="3way_D05"/>
<trip id="122" depart="34.160000000000004" fromJunction="4way_C08" toJunction="3way_F10"/>
<trip id="123" depart="34.440000000000005" fromJunction="4way_G05" toJunction="4way_B04"/>
<trip id="124" depart="34.720000000000006" fromJunction="4way_E09" toJunction="4way_F02"/>
<trip id="125" depart="35.0" fromJunction="3way_B10" toJunction="4way_G03"/>
<trip id="126" depart="35.28" fromJunction="4way_D07" toJunction="4way_D04"/>
<trip id="127" depart="35.56" fromJunction="3way_G00" toJunction="4way_G07"/>
<trip id="128" depart="35.84" fromJunction="3way_C10" toJunction="3way_H04"/>
<trip id="129" depart="36.120000000000005" fromJunction="4way_G04" toJunction="3way_A05"/>
<trip id="130" depart="36.400000000000006" fromJunction="4way_F03" toJunction="4way_E04"/>
<trip id="131" depart="36.68000000000001" fromJunction="4way_D07" toJunction="3way_H01"/>
<trip id="132" depart="36.96" fromJunction="4way_C07" toJunction="3way_A08"/>
<trip id="133" depart="37.24" fromJunction="4way_G01" toJunction="4way_G08"/>
<trip id="134" depart="37.52" fromJunction="4way_G07" toJunction="3way_B03"/>
<trip id="135" depart="37.800000000000004" fromJunction="4way_G06" toJunction="3way_H05"/>
<trip id="136" depart="38.080000000000005" fromJunction="4way_F04" toJunction="4way_G05"/>
<trip id="137" depart="38.36000000000001" fromJunction="4way_F09" toJunction="4way_E01"/>
<trip id="138" depart="38.64" fromJunction="4way_F08" toJunction="3way_G00"/>
<trip id="139" depart="38.92" fromJunction="3way_A04" toJunction="4way_D09"/>
<trip id="140" depart="39.2" fromJunction="3way_F10" toJunction="4way_B04"/>
<trip id="141" depart="39.480000000000004" fromJunction="4way_C07" toJunction="4way_G08"/>
<trip id="142" depart="39.760000000000005" fromJunction="3way_E02" toJunction="4way_C08"/>
<trip id="143" depart="40.040000000000006" fromJunction="3way_E10" toJunction="3way_B05"/>
<trip id="144" depart="40.32000000000001" fromJunction="3way_H08" toJunction="4way_F06"/>
<trip id="145" depart="40.6" fromJunction="3way_H05" toJunction="4way_C09"/>
<trip id="146" depart="40.88" fromJunction="4way_F09" toJunction="3way_C10"/>
<trip id="147" depart="41.160000000000004" fromJunction="4way_G07" toJunction="4way_G08"/>
<trip id="148" depart="41.440000000000005" fromJunction="4way_F02" toJunction="4way_G03"/>
<trip id="149" depart="41.720000000000006" fromJunction="3way_A09" toJunction="3way_E00"/>
<trip id="150" depart="42.00000000000001" fromJunction="3way_H05" toJunction="4way_B08"/>
<trip id="151" depart="42.28" fromJunction="3way_A07" toJunction="3way_E10"/>
<trip id="152" depart="42.56" fromJunction="3way_A04" toJunction="4way_E08"/>
<trip id="153" depart="42.84" fromJunction="3way_F10" toJunction="4way_F02"/>
<trip id="154" depart="43.120000000000005" fromJunction="3way_B10" toJunction="3way_A09"/>
<trip id="155" depart="43.400000000000006" fromJunction="3way_H04" toJunction="4way_E04"/>
<trip id="156" depart="43.68000000000001" fromJunction="3way_D05" toJunction="4way_B09"/>
<trip id="157" depart="43.96" fromJunction="4way_E08" toJunction="4way_F08"/>
<trip id="158" depart="44.24" fromJunction="3way_E10" toJunction="3way_H02"/>
<trip id="159" depart="44.52" fromJunction="3way_G00" toJunction="3way_A07"/>
<trip id="160" depart="44.800000000000004" fromJunction="3way_C04" toJunction="3way_H03"/>
<trip id="161" depart="45.080000000000005" fromJunction="4way_E06" toJunction="4way_E05"/>
<trip id="162" depart="45.36000000000001" fromJunction="4way_B06" toJunction="3way_H01"/>
<trip id="163" depart="45.64000000000001" fromJunction="4way_F03" toJunction="3way_H08"/>
<trip id="164" depart="45.92" fromJunction="4way_E06" toJunction="3way_A08"/>
<trip id="165" depart="46.2" fromJunction="4way_F02" toJunction="4way_F03"/>
<trip id="166" depart="46.480000000000004" fromJunction="3way_B05" toJunction="3way_H03"/>
<trip id="167" depart="46.760000000000005" fromJunction="3way_H02" toJunction="4way_D07"/>
<trip id="168" depart="47.040000000000006" fromJunction="3way_H07" toJunction="3way_B05"/>
<trip id="169" depart="47.32000000000001" fromJunction="3way_A07" toJunction="3way_C06"/>
<trip id="170" depart="47.6" fromJunction="3way_A09" toJunction="4way_F04"/>
<trip id="171" depart="47.88" fromJunction="3way_F00" toJunction="3way_D01"/>
<trip id="172" depart="48.160000000000004" fromJunction="4way_G07" toJunction="4way_D06"/>
<trip id="173" depart="48.440000000000005" fromJunction="3way_A06" toJunction="3way_E02"/>
<trip id="174" depart="48.720000000000006" fromJunction="4way_C09" toJunction="4way_B09"/>
<trip id="175" depart="49.00000000000001" fromJunction="4way_E05" toJunction="4way_D03"/>
<trip id="176" depart="49.28" fromJunction="3way_E10" toJunction="3way_H02"/>
<trip id="177" depart="49.56" fromJunction="4way_G06" toJunction="4way_B07"/>
<trip id="178" depart="49.84" fromJunction="4way_G03" toJunction="3way_H08"/>
<trip id="179" depart="50.120000000000005" fromJunction="3way_C04" toJunction="4way_D04"/>
<trip id="180" depart="50.400000000000006" fromJunction="3way_C06" toJunction="4way_G01"/>
<trip id="181" depart="50.68000000000001" fromJunction="4way_B07" toJunction="4way_E08"/>
<trip id="182" depart="50.96000000000001" fromJunction="4way_E05" toJunction="4way_G03"/>
<trip id="183" depart="51.24" fromJunction="3way_E00" toJunction="4way_E06"/>
<trip id="184" depart="51.52" fromJunction="4way_E01" toJunction="4way_F01"/>
<trip id="185" depart="51.800000000000004" fromJunction="3way_G10" toJunction="3way_H04"/>
<trip id="186" depart="52.080000000000005" fromJunction="4way_G07" toJunction="4way_F04"/>
<trip id="187" depart="52.36000000000001" fromJunction="4way_D07" toJunction="3way_C04"/>
<trip id="188" depart="52.64000000000001" fromJunction="3way_C04" toJunction="4way_F08"/>
<trip id="189" depart="52.92" fromJunction="4way_D06" toJunction="4way_G06"/>
<trip id="190" depart="53.2" fromJunction="4way_G03" toJunction="4way_F06"/>
<trip id="191" depart="53.480000000000004" fromJunction="3way_G10" toJunction="4way_F05"/>
<trip id="192" depart="53.760000000000005" fromJunction="4way_B07" toJunction="4way_E01"/>
<trip id="193" depart="54.040000000000006" fromJunction="4way_B09" toJunction="3way_A08"/>
<trip id="194" depart="54.32000000000001" fromJunction="4way_F08" toJunction="3way_H03"/>
<trip id="195" depart="54.60000000000001" fromJunction="4way_G07" toJunction="3way_A06"/>
<trip id="196" depart="54.88" fromJunction="3way_H08" toJunction="3way_A05"/>
<trip id="197" depart="55.160000000000004" fromJunction="4way_G04" toJunction="4way_B07"/>
<trip id="198" depart="55.440000000000005" fromJunction="4way_G06" toJunction="3way_C10"/>
<trip id="199" depart="55.720000000000006" fromJunction="3way_C04" toJunction="4way_F09"/>
<trip id="200" depart="56.00000000000001" fromJunction="3way_H05" toJunction="3way_E00"/>
<trip id="201" depart="56.28000000000001" fromJunction="3way_A06" toJunction="4way_D09"/>
<trip id="202" depart="56.56" fromJunction="4way_B09" toJunction="3way_A05"/>
<trip id="203" depart="56.84" fromJunction="3way_H03" toJunction="3way_A08"/>
<trip id="204" depart="57.120000000000005" fromJunction="3way_H03" toJunction="3way_H06"/>
<trip id="205" depart="57.400000000000006" fromJunction="3way_A04" toJunction="3way_E10"/>
<trip id="206" depart="57.68000000000001" fromJunction="4way_D09" toJunction="3way_D10"/>
<trip id="207" depart="57.96000000000001" fromJunction="4way_G09" toJunction="4way_G08"/>
<trip id="208" depart="58.24000000000001" fromJunction="3way_G10" toJunction="4way_B08"/>
<trip id="209" depart="58.52" fromJunction="4way_C08" toJunction="4way_E01"/>
<trip id="210" depart="58.800000000000004" fromJunction="3way_A08" toJunction="4way_G09"/>
<trip id="211" depart="59.080000000000005" fromJunction="3way_H01" toJunction="4way_F03"/>
<trip id="212" depart="59.36000000000001" fromJunction="4way_E03" toJunction="3way_H04"/>
<trip id="213" depart="59.64000000000001" fromJunction="4way_E03" toJunction="3way_H04"/>
<trip id="214" depart="59.92000000000001" fromJunction="4way_B09" toJunction="3way_D01"/>
<trip id="215" depart="60.2" fromJunction="3way_H01" toJunction="4way_D04"/>
<trip id="216" depart="60.480000000000004" fromJunction="4way_B08" toJunction="4way_E06"/>
<trip id="217" depart="60.760000000000005" fromJunction="4way_F06" toJunction="4way_B04"/>
<trip id="218" depart="61.040000000000006" fromJunction="3way_A07" toJunction="4way_G04"/>
<trip id="219" depart="61.32000000000001" fromJunction="4way_B04" toJunction="3way_H05"/>
<trip id="220" depart="61.60000000000001" fromJunction="4way_G08" toJunction="4way_F05"/>
<trip id="221" depart="61.88" fromJunction="4way_G03" toJunction="4way_G07"/>
<trip id="222" depart="62.160000000000004" fromJunction="4way_G09" toJunction="3way_G00"/>
<trip id="223" depart="62.440000000000005" fromJunction="3way_C10" toJunction="3way_H04"/>
<trip id="224" depart="62.720000000000006" fromJunction="3way_H05" toJunction="4way_G06"/>
<trip id="225" depart="63.00000000000001" fromJunction="3way_A08" toJunction="4way_E05"/>
<trip id="226" depart="63.28000000000001" fromJunction="4way_G01" toJunction="4way_E08"/>
<trip id="227" depart="63.56000000000001" fromJunction="4way_B06" toJunction="3way_H02"/>
<trip id="228" depart="63.84" fromJunction="4way_E09" toJunction="3way_B05"/>
<trip id="229" depart="64.12" fromJunction="3way_H09" toJunction="3way_H04"/>
<trip id="230" depart="64.4" fromJunction="3way_G00" toJunction="3way_C04"/>
<trip id="231" depart="64.68" fromJunction="3way_H04" toJunction="4way_F07"/>
<trip id="232" depart="64.96000000000001" fromJunction="4way_G05" toJunction="4way_C09"/>
<trip id="233" depart="65.24000000000001" fromJunction="4way_F09" toJunction="4way_E01"/>
<trip id="234" depart="65.52000000000001" fromJunction="4way_F01" toJunction="4way_G05"/>
<trip id="235" depart="65.80000000000001" fromJunction="4way_G07" toJunction="4way_E06"/>
<trip id="236" depart="66.08000000000001" fromJunction="3way_C04" toJunction="4way_G09"/>
<trip id="237" depart="66.36" fromJunction="3way_G00" toJunction="3way_A09"/>
<trip id="238" depart="66.64" fromJunction="4way_B09" toJunction="3way_F10"/>
<trip id="239" depart="66.92" fromJunction="4way_D08" toJunction="3way_E10"/>
<trip id="240" depart="67.2" fromJunction="4way_G02" toJunction="4way_B06"/>
<trip id="241" depart="67.48" fromJunction="4way_D04" toJunction="4way_G07"/>
<trip id="242" depart="67.76" fromJunction="4way_D07" toJunction="3way_H02"/>
<trip id="243" depart="68.04" fromJunction="4way_B08" toJunction="4way_G02"/>
<trip id="244" depart="68.32000000000001" fromJunction="3way_H02" toJunction="4way_D04"/>
<trip id="245" depart="68.60000000000001" fromJunction="4way_B07" toJunction="3way_C04"/>
<trip id="246" depart="68.88000000000001" fromJunction="4way_C09" toJunction="3way_H04"/>
<trip id="247" depart="69.16000000000001" fromJunction="3way_B05" toJunction="3way_F00"/>
<trip id="248" depart="69.44000000000001" fromJunction="4way_F01" toJunction="3way_D01"/>
<trip id="249" depart="69.72000000000001" fromJunction="4way_G04" toJunction="3way_B03"/>
<trip id="250" depart="70.0" fromJunction="3way_A07" toJunction="4way_F09"/>
<trip id="251" depart="70.28" fromJunction="3way_C04" toJunction="3way_H03"/>
<trip id="252" depart="70.56" fromJunction="4way_B04" toJunction="3way_C10"/>
<trip id="253" depart="70.84" fromJunction="4way_E04" toJunction="4way_E09"/>
<trip id="254" depart="71.12" fromJunction="4way_E07" toJunction="4way_D09"/>
<trip id="255" depart="71.4" fromJunction="3way_B03" toJunction="3way_H07"/>
<trip id="256" depart="71.68" fromJunction="4way_G01" toJunction="4way_E04"/>
<trip id="257" depart="71.96000000000001" fromJunction="3way_H01" toJunction="4way_D04"/>
<trip id="258" depart="72.24000000000001" fromJunction="4way_E07" toJunction="3way_A06"/>
<trip id="259" depart="72.52000000000001" fromJunction="3way_B05" toJunction="3way_A04"/>
<trip id="260" depart="72.80000000000001" fromJunction="4way_G04" toJunction="4way_D03"/>
<trip id="261" depart="73.08000000000001" fromJunction="4way_B08" toJunction="3way_B10"/>
<trip id="262" depart="73.36000000000001" fromJunction="3way_B03" toJunction="3way_A05"/>
<trip id="263" depart="73.64" fromJunction="3way_H01" toJunction="4way_D09"/>
<trip id="264" depart="73.92" fromJunction="3way_D10" toJunction="3way_H06"/>
<trip id="265" depart="74.2" fromJunction="4way_E06" toJunction="4way_D06"/>
<trip id="266" depart="74.48" fromJunction="4way_G06" toJunction="4way_E04"/>
<trip id="267" depart="74.76" fromJunction="3way_E02" toJunction="3way_A04"/>
<trip id="268" depart="75.04" fromJunction="4way_D07" toJunction="4way_D08"/>
<trip id="269" depart="75.32000000000001" fromJunction="3way_A05" toJunction="4way_G07"/>
<trip id="270" depart="75.60000000000001" fromJunction="4way_F05" toJunction="4way_E06"/>
<trip id="271" depart="75.88000000000001" fromJunction="3way_B03" toJunction="4way_C09"/>
<trip id="272" depart="76.16000000000001" fromJunction="3way_C10" toJunction="4way_F03"/>
<trip id="273" depart="76.44000000000001" fromJunction="3way_D01" toJunction="3way_C03"/>
<trip id="274" depart="76.72000000000001" fromJunction="3way_B10" toJunction="4way_E05"/>
<trip id="275" depart="77.00000000000001" fromJunction="4way_B08" toJunction="3way_H05"/>
<trip id="276" depart="77.28" fromJunction="4way_G01" toJunction="4way_D09"/>
<trip id="277" depart="77.56" fromJunction="3way_E10" toJunction="4way_D09"/>
<trip id="278" depart="77.84" fromJunction="4way_F09" toJunction="4way_G08"/>
<trip id="279" depart="78.12" fromJunction="4way_G04" toJunction="4way_C09"/>
<trip id="280" depart="78.4" fromJunction="4way_G04" toJunction="4way_D03"/>
<trip id="281" depart="78.68" fromJunction="4way_G07" toJunction="4way_F06"/>
<trip id="282" depart="78.96000000000001" fromJunction="3way_A06" toJunction="4way_G04"/>
<trip id="283" depart="79.24000000000001" fromJunction="4way_B07" toJunction="3way_H09"/>
<trip id="284" depart="79.52000000000001" fromJunction="3way_G00" toJunction="4way_G06"/>
<trip id="285" depart="79.80000000000001" fromJunction="4way_G01" toJunction="3way_G10"/>
<trip id="286" depart="80.08000000000001" fromJunction="4way_G03" toJunction="3way_C04"/>
<trip id="287" depart="80.36000000000001" fromJunction="4way_E03" toJunction="3way_G10"/>
<trip id="288" depart="80.64000000000001" fromJunction="3way_A09" toJunction="3way_C03"/>
<trip id="289" depart="80.92" fromJunction="3way_H04" toJunction="4way_E06"/>
<trip id="290" depart="81.2" fromJunction="3way_A08" toJunction="3way_A06"/>
<trip id="291" depart="81.48" fromJunction="4way_G03" toJunction="3way_A08"/>
<trip id="292" depart="81.76" fromJunction="4way_G02" toJunction="4way_E09"/>
<trip id="293" depart="82.04" fromJunction="4way_D03" toJunction="4way_E04"/>
<trip id="294" depart="82.32000000000001" fromJunction="4way_G09" toJunction="3way_G00"/>
<trip id="295" depart="82.60000000000001" fromJunction="3way_C06" toJunction="3way_B05"/>
<trip id="296" depart="82.88000000000001" fromJunction="4way_G08" toJunction="4way_B06"/>
<trip id="297" depart="83.16000000000001" fromJunction="3way_E00" toJunction="3way_H09"/>
<trip id="298" depart="83.44000000000001" fromJunction="3way_A08" toJunction="4way_E04"/>
<trip id="299" depart="83.72000000000001" fromJunction="4way_C07" toJunction="4way_D08"/>
<trip id="300" depart="84.00000000000001" fromJunction="3way_H04" toJunction="3way_H01"/>
<trip id="301" depart="84.28" fromJunction="3way_B05" toJunction="3way_D01"/>
<trip id="302" depart="84.56" fromJunction="3way_B03" toJunction="3way_C04"/>
<trip id="303" depart="84.84" fromJunction="3way_E10" toJunction="4way_G07"/>
<trip id="304" depart="85.12" fromJunction="3way_B03" toJunction="3way_B10"/>
<trip id="305" depart="85.4" fromJunction="4way_E03" toJunction="4way_D07"/>
<trip id="306" depart="85.68" fromJunction="4way_G09" toJunction="4way_B07"/>
<trip id="307" depart="85.96000000000001" fromJunction="4way_E07" toJunction="4way_B04"/>
<trip id="308" depart="86.24000000000001" fromJunction="4way_F05" toJunction="4way_E01"/>
<trip id="309" depart="86.52000000000001" fromJunction="4way_G02" toJunction="4way_G08"/>
<trip id="310" depart="86.80000000000001" fromJunction="4way_E06" toJunction="4way_F02"/>
<trip id="311" depart="87.08000000000001" fromJunction="3way_F10" toJunction="3way_B03"/>
<trip id="312" depart="87.36000000000001" fromJunction="3way_H04" toJunction="3way_A08"/>
<trip id="313" depart="87.64000000000001" fromJunction="3way_D01" toJunction="3way_C03"/>
<trip id="314" depart="87.92" fromJunction="4way_G07" toJunction="4way_F02"/>
<trip id="315" depart="88.2" fromJunction="3way_C10" toJunction="3way_D10"/>
<trip id="316" depart="88.48" fromJunction="4way_E09" toJunction="4way_D07"/>
<trip id="317" depart="88.76" fromJunction="4way_G05" toJunction="4way_F08"/>
<trip id="318" depart="89.04" fromJunction="4way_B07" toJunction="4way_G08"/>
<trip id="319" depart="89.32000000000001" fromJunction="3way_F10" toJunction="4way_B06"/>
<trip id="320" depart="89.60000000000001" fromJunction="4way_E03" toJunction="4way_E05"/>
<trip id="321" depart="89.88000000000001" fromJunction="3way_C10" toJunction="4way_F09"/>
<trip id="322" depart="90.16000000000001" fromJunction="4way_D06" toJunction="4way_C08"/>
<trip id="323" depart="90.44000000000001" fromJunction="3way_H09" toJunction="3way_H04"/>
<trip id="324" depart="90.72000000000001" fromJunction="3way_A08" toJunction="4way_F08"/>
<trip id="325" depart="91.00000000000001" fromJunction="3way_D10" toJunction="3way_C06"/>
<trip id="326" depart="91.28000000000002" fromJunction="4way_G08" toJunction="3way_C04"/>
<trip id="327" depart="91.56" fromJunction="4way_F08" toJunction="4way_B09"/>
<trip id="328" depart="91.84" fromJunction="3way_H02" toJunction="3way_D10"/>
<trip id="329" depart="92.12" fromJunction="4way_B07" toJunction="4way_B08"/>
<trip id="330" depart="92.4" fromJunction="3way_B03" toJunction="4way_E04"/>
<trip id="331" depart="92.68" fromJunction="3way_E02" toJunction="4way_E07"/>
<trip id="332" depart="92.96000000000001" fromJunction="3way_C03" toJunction="4way_B07"/>
<trip id="333" depart="93.24000000000001" fromJunction="3way_A09" toJunction="4way_D09"/>
<trip id="334" depart="93.52000000000001" fromJunction="4way_E03" toJunction="4way_F06"/>
<trip id="335" depart="93.80000000000001" fromJunction="4way_D03" toJunction="4way_E08"/>
<trip id="336" depart="94.08000000000001" fromJunction="4way_B08" toJunction="3way_C10"/>
<trip id="337" depart="94.36000000000001" fromJunction="3way_E00" toJunction="4way_B08"/>
<trip id="338" depart="94.64000000000001" fromJunction="4way_E09" toJunction="3way_A06"/>
<trip id="339" depart="94.92000000000002" fromJunction="4way_D08" toJunction="3way_C10"/>
<trip id="340" depart="95.2" fromJunction="4way_E01" toJunction="4way_E06"/>
<trip id="341" depart="95.48" fromJunction="3way_C10" toJunction="4way_G07"/>
<trip id="342" depart="95.76" fromJunction="3way_A06" toJunction="4way_F09"/>
<trip id="343" depart="96.04" fromJunction="4way_B08" toJunction="4way_D03"/>
<trip id="344" depart="96.32000000000001" fromJunction="3way_B05" toJunction="3way_D01"/>
<trip id="345" depart="96.60000000000001" fromJunction="3way_A05" toJunction="3way_H08"/>
<trip id="346" depart="96.88000000000001" fromJunction="4way_F07" toJunction="3way_D01"/>
<trip id="347" depart="97.16000000000001" fromJunction="3way_H05" toJunction="3way_B05"/>
<trip id="348" depart="97.44000000000001" fromJunction="3way_B10" toJunction="3way_A09"/>
<trip id="349" depart="97.72000000000001" fromJunction="3way_C10" toJunction="3way_H06"/>