<?xml version="1.0" encoding="UTF-8"?>

<!-- generated on 2023-07-28 05:16:51 by Eclipse SUMO netconvert Version 1.12.0
<configuration xmlns:xsi="http://www.w3.org/2001/XMLSchema-instance" xsi:noNamespaceSchemaLocation="http://sumo.dlr.de/xsd/netconvertConfiguration.xsd">

    <input>
        <node-files value="sq.nod.xml"/>
        <edge-files value="sq.edg.xml"/>
    </input>

    <output>
        <output-file value="sq.tmp.net.xml"/>
    </output>

    <processing>
        <lefthand value="true"/>
    </processing>

    <tls_building>
        <tls.discard-simple value="true"/>
        <tls.join value="true"/>
    </tls_building>

    <edge_removal>
        <keep-edges.components value="1"/>
    </edge_removal>

    <junctions>
        <no-turnarounds value="true"/>
    </junctions>

    <report>
        <aggregate-warnings value="5"/>
    </report>

</configuration>
-->

<net version="1.9" junctionCornerDetail="5" lefthand="true" limitTurnSpeed="5.50" xmlns:xsi="http://www.w3.org/2001/XMLSchema-instance" xsi:noNamespaceSchemaLocation="http://sumo.dlr.de/xsd/net_file.xsd">

    <location netOffset="0.00,1900.00" convBoundary="0.00,-0.00,1900.00,1900.00" origBoundary="0.00,-1900.00,1900.00,0.00" projParameter="!"/>

    <edge id=":3way_1_0" function="internal">
        <lane id=":3way_1_0_0" index="0" speed="6.51" length="9.03" shape="98.40,1892.80 98.05,1895.25 97.00,1897.00 95.25,1898.05 92.80,1898.40"/>
    </edge>
    <edge id=":3way_1_1" function="internal">
        <lane id=":3way_1_1_0" index="0" speed="8.00" length="14.19" shape="98.40,1892.80 98.95,1896.65 100.60,1899.40 103.35,1901.05 107.20,1901.60"/>
    </edge>
    <edge id=":3way_1_2" function="internal">
        <lane id=":3way_1_2_0" index="0" speed="6.51" length="9.03" shape="107.20,1898.40 104.75,1898.05 103.00,1897.00 101.95,1895.25 101.60,1892.80"/>
    </edge>
    <edge id=":3way_1_3" function="internal">
        <lane id=":3way_1_3_0" index="0" speed="13.89" length="14.40" shape="107.20,1898.40 92.80,1898.40"/>
    </edge>
    <edge id=":3way_1_4" function="internal">
        <lane id=":3way_1_4_0" index="0" speed="13.89" length="14.40" shape="92.80,1901.60 107.20,1901.60"/>
    </edge>
    <edge id=":3way_1_5" function="internal">
        <lane id=":3way_1_5_0" index="0" speed="8.00" length="4.07" shape="92.80,1901.60 96.65,1901.05 96.80,1900.96"/>
    </edge>
    <edge id=":3way_1_6" function="internal">
        <lane id=":3way_1_6_0" index="0" speed="8.00" length="10.13" shape="96.80,1900.96 99.40,1899.40 101.05,1896.65 101.60,1892.80"/>
    </edge>
    <edge id=":3way_10_0" function="internal">
        <lane id=":3way_10_0_0" index="0" speed="6.51" length="9.03" shape="998.40,1892.80 998.05,1895.25 997.00,1897.00 995.25,1898.05 992.80,1898.40"/>
    </edge>
    <edge id=":3way_10_1" function="internal">
        <lane id=":3way_10_1_0" index="0" speed="8.00" length="14.19" shape="998.40,1892.80 998.95,1896.65 1000.60,1899.40 1003.35,1901.05 1007.20,1901.60"/>
    </edge>
    <edge id=":3way_10_2" function="internal">
        <lane id=":3way_10_2_0" index="0" speed="6.51" length="9.03" shape="1007.20,1898.40 1004.75,1898.05 1003.00,1897.00 1001.95,1895.25 1001.60,1892.80"/>
    </edge>
    <edge id=":3way_10_3" function="internal">
        <lane id=":3way_10_3_0" index="0" speed="13.89" length="14.40" shape="1007.20,1898.40 992.80,1898.40"/>
    </edge>
    <edge id=":3way_10_4" function="internal">
        <lane id=":3way_10_4_0" index="0" speed="13.89" length="14.40" shape="992.80,1901.60 1007.20,1901.60"/>
    </edge>
    <edge id=":3way_10_5" function="internal">
        <lane id=":3way_10_5_0" index="0" speed="8.00" length="4.07" shape="992.80,1901.60 996.65,1901.05 996.80,1900.96"/>
    </edge>
    <edge id=":3way_10_6" function="internal">
        <lane id=":3way_10_6_0" index="0" speed="8.00" length="10.13" shape="996.80,1900.96 999.40,1899.40 1001.05,1896.65 1001.60,1892.80"/>
    </edge>
    <edge id=":3way_100_0" function="internal">
        <lane id=":3way_100_0_0" index="0" speed="13.89" length="14.40" shape="-1.60,1392.80 -1.60,1407.20"/>
    </edge>
    <edge id=":3way_100_1" function="internal">
        <lane id=":3way_100_1_0" index="0" speed="8.00" length="4.07" shape="-1.60,1392.80 -1.05,1396.65 -0.96,1396.80"/>
    </edge>
    <edge id=":3way_100_6" function="internal">
        <lane id=":3way_100_6_0" index="0" speed="8.00" length="10.13" shape="-0.96,1396.80 0.60,1399.40 3.35,1401.05 7.20,1401.60"/>
    </edge>
    <edge id=":3way_100_2" function="internal">
        <lane id=":3way_100_2_0" index="0" speed="6.51" length="9.03" shape="7.20,1398.40 4.75,1398.05 3.00,1397.00 1.95,1395.25 1.60,1392.80"/>
    </edge>
    <edge id=":3way_100_3" function="internal">
        <lane id=":3way_100_3_0" index="0" speed="8.00" length="14.19" shape="7.20,1398.40 3.35,1398.95 0.60,1400.60 -1.05,1403.35 -1.60,1407.20"/>
    </edge>
    <edge id=":3way_100_4" function="internal">
        <lane id=":3way_100_4_0" index="0" speed="6.51" length="9.03" shape="1.60,1407.20 1.95,1404.75 3.00,1403.00 4.75,1401.95 7.20,1401.60"/>
    </edge>
    <edge id=":3way_100_5" function="internal">
        <lane id=":3way_100_5_0" index="0" speed="13.89" length="14.40" shape="1.60,1407.20 1.60,1392.80"/>
    </edge>
    <edge id=":3way_11_0" function="internal">
        <lane id=":3way_11_0_0" index="0" speed="6.51" length="9.03" shape="1098.40,1892.80 1098.05,1895.25 1097.00,1897.00 1095.25,1898.05 1092.80,1898.40"/>
    </edge>
    <edge id=":3way_11_1" function="internal">
        <lane id=":3way_11_1_0" index="0" speed="8.00" length="14.19" shape="1098.40,1892.80 1098.95,1896.65 1100.60,1899.40 1103.35,1901.05 1107.20,1901.60"/>
    </edge>
    <edge id=":3way_11_2" function="internal">
        <lane id=":3way_11_2_0" index="0" speed="6.51" length="9.03" shape="1107.20,1898.40 1104.75,1898.05 1103.00,1897.00 1101.95,1895.25 1101.60,1892.80"/>
    </edge>
    <edge id=":3way_11_3" function="internal">
        <lane id=":3way_11_3_0" index="0" speed="13.89" length="14.40" shape="1107.20,1898.40 1092.80,1898.40"/>
    </edge>
    <edge id=":3way_11_4" function="internal">
        <lane id=":3way_11_4_0" index="0" speed="13.89" length="14.40" shape="1092.80,1901.60 1107.20,1901.60"/>
    </edge>
    <edge id=":3way_11_5" function="internal">
        <lane id=":3way_11_5_0" index="0" speed="8.00" length="4.07" shape="1092.80,1901.60 1096.65,1901.05 1096.80,1900.96"/>
    </edge>
    <edge id=":3way_11_6" function="internal">
        <lane id=":3way_11_6_0" index="0" speed="8.00" length="10.13" shape="1096.80,1900.96 1099.40,1899.40 1101.05,1896.65 1101.60,1892.80"/>
    </edge>
    <edge id=":3way_119_0" function="internal">
        <lane id=":3way_119_0_0" index="0" speed="6.51" length="9.03" shape="1898.40,1392.80 1898.05,1395.25 1897.00,1397.00 1895.25,1398.05 1892.80,1398.40"/>
    </edge>
    <edge id=":3way_119_1" function="internal">
        <lane id=":3way_119_1_0" index="0" speed="13.89" length="14.40" shape="1898.40,1392.80 1898.40,1407.20"/>
    </edge>
    <edge id=":3way_119_2" function="internal">
        <lane id=":3way_119_2_0" index="0" speed="13.89" length="14.40" shape="1901.60,1407.20 1901.60,1392.80"/>
    </edge>
    <edge id=":3way_119_3" function="internal">
        <lane id=":3way_119_3_0" index="0" speed="8.00" length="4.07" shape="1901.60,1407.20 1901.05,1403.35 1900.96,1403.20"/>
    </edge>
    <edge id=":3way_119_6" function="internal">
        <lane id=":3way_119_6_0" index="0" speed="8.00" length="10.13" shape="1900.96,1403.20 1899.40,1400.60 1896.65,1398.95 1892.80,1398.40"/>
    </edge>
    <edge id=":3way_119_4" function="internal">
        <lane id=":3way_119_4_0" index="0" speed="6.51" length="9.03" shape="1892.80,1401.60 1895.25,1401.95 1897.00,1403.00 1898.05,1404.75 1898.40,1407.20"/>
    </edge>
    <edge id=":3way_119_5" function="internal">
        <lane id=":3way_119_5_0" index="0" speed="8.00" length="14.19" shape="1892.80,1401.60 1896.65,1401.05 1899.40,1399.40 1901.05,1396.65 1901.60,1392.80"/>
    </edge>
    <edge id=":3way_12_0" function="internal">
        <lane id=":3way_12_0_0" index="0" speed="6.51" length="9.03" shape="1198.40,1892.80 1198.05,1895.25 1197.00,1897.00 1195.25,1898.05 1192.80,1898.40"/>
    </edge>
    <edge id=":3way_12_1" function="internal">
        <lane id=":3way_12_1_0" index="0" speed="8.00" length="14.19" shape="1198.40,1892.80 1198.95,1896.65 1200.60,1899.40 1203.35,1901.05 1207.20,1901.60"/>
    </edge>
    <edge id=":3way_12_2" function="internal">
        <lane id=":3way_12_2_0" index="0" speed="6.51" length="9.03" shape="1207.20,1898.40 1204.75,1898.05 1203.00,1897.00 1201.95,1895.25 1201.60,1892.80"/>
    </edge>
    <edge id=":3way_12_3" function="internal">
        <lane id=":3way_12_3_0" index="0" speed="13.89" length="14.40" shape="1207.20,1898.40 1192.80,1898.40"/>
    </edge>
    <edge id=":3way_12_4" function="internal">
        <lane id=":3way_12_4_0" index="0" speed="13.89" length="14.40" shape="1192.80,1901.60 1207.20,1901.60"/>
    </edge>
    <edge id=":3way_12_5" function="internal">
        <lane id=":3way_12_5_0" index="0" speed="8.00" length="4.07" shape="1192.80,1901.60 1196.65,1901.05 1196.80,1900.96"/>
    </edge>
    <edge id=":3way_12_6" function="internal">
        <lane id=":3way_12_6_0" index="0" speed="8.00" length="10.13" shape="1196.80,1900.96 1199.40,1899.40 1201.05,1896.65 1201.60,1892.80"/>
    </edge>
    <edge id=":3way_120_0" function="internal">
        <lane id=":3way_120_0_0" index="0" speed="13.89" length="14.40" shape="-1.60,1292.80 -1.60,1307.20"/>
    </edge>
    <edge id=":3way_120_1" function="internal">
        <lane id=":3way_120_1_0" index="0" speed="8.00" length="4.07" shape="-1.60,1292.80 -1.05,1296.65 -0.96,1296.80"/>
    </edge>
    <edge id=":3way_120_6" function="internal">
        <lane id=":3way_120_6_0" index="0" speed="8.00" length="10.13" shape="-0.96,1296.80 0.60,1299.40 3.35,1301.05 7.20,1301.60"/>
    </edge>
    <edge id=":3way_120_2" function="internal">
        <lane id=":3way_120_2_0" index="0" speed="6.51" length="9.03" shape="7.20,1298.40 4.75,1298.05 3.00,1297.00 1.95,1295.25 1.60,1292.80"/>
    </edge>
    <edge id=":3way_120_3" function="internal">
        <lane id=":3way_120_3_0" index="0" speed="8.00" length="14.19" shape="7.20,1298.40 3.35,1298.95 0.60,1300.60 -1.05,1303.35 -1.60,1307.20"/>
    </edge>
    <edge id=":3way_120_4" function="internal">
        <lane id=":3way_120_4_0" index="0" speed="6.51" length="9.03" shape="1.60,1307.20 1.95,1304.75 3.00,1303.00 4.75,1301.95 7.20,1301.60"/>
    </edge>
    <edge id=":3way_120_5" function="internal">
        <lane id=":3way_120_5_0" index="0" speed="13.89" length="14.40" shape="1.60,1307.20 1.60,1292.80"/>
    </edge>
    <edge id=":3way_13_0" function="internal">
        <lane id=":3way_13_0_0" index="0" speed="6.51" length="9.03" shape="1298.40,1892.80 1298.05,1895.25 1297.00,1897.00 1295.25,1898.05 1292.80,1898.40"/>
    </edge>
    <edge id=":3way_13_1" function="internal">
        <lane id=":3way_13_1_0" index="0" speed="8.00" length="14.19" shape="1298.40,1892.80 1298.95,1896.65 1300.60,1899.40 1303.35,1901.05 1307.20,1901.60"/>
    </edge>
    <edge id=":3way_13_2" function="internal">
        <lane id=":3way_13_2_0" index="0" speed="6.51" length="9.03" shape="1307.20,1898.40 1304.75,1898.05 1303.00,1897.00 1301.95,1895.25 1301.60,1892.80"/>
    </edge>
    <edge id=":3way_13_3" function="internal">
        <lane id=":3way_13_3_0" index="0" speed="13.89" length="14.40" shape="1307.20,1898.40 1292.80,1898.40"/>
    </edge>
    <edge id=":3way_13_4" function="internal">
        <lane id=":3way_13_4_0" index="0" speed="13.89" length="14.40" shape="1292.80,1901.60 1307.20,1901.60"/>
    </edge>
    <edge id=":3way_13_5" function="internal">
        <lane id=":3way_13_5_0" index="0" speed="8.00" length="4.07" shape="1292.80,1901.60 1296.65,1901.05 1296.80,1900.96"/>
    </edge>
    <edge id=":3way_13_6" function="internal">
        <lane id=":3way_13_6_0" index="0" speed="8.00" length="10.13" shape="1296.80,1900.96 1299.40,1899.40 1301.05,1896.65 1301.60,1892.80"/>
    </edge>
    <edge id=":3way_139_0" function="internal">
        <lane id=":3way_139_0_0" index="0" speed="6.51" length="9.03" shape="1898.40,1292.80 1898.05,1295.25 1897.00,1297.00 1895.25,1298.05 1892.80,1298.40"/>
    </edge>
    <edge id=":3way_139_1" function="internal">
        <lane id=":3way_139_1_0" index="0" speed="13.89" length="14.40" shape="1898.40,1292.80 1898.40,1307.20"/>
    </edge>
    <edge id=":3way_139_2" function="internal">
        <lane id=":3way_139_2_0" index="0" speed="13.89" length="14.40" shape="1901.60,1307.20 1901.60,1292.80"/>
    </edge>
    <edge id=":3way_139_3" function="internal">
        <lane id=":3way_139_3_0" index="0" speed="8.00" length="4.07" shape="1901.60,1307.20 1901.05,1303.35 1900.96,1303.20"/>
    </edge>
    <edge id=":3way_139_6" function="internal">
        <lane id=":3way_139_6_0" index="0" speed="8.00" length="10.13" shape="1900.96,1303.20 1899.40,1300.60 1896.65,1298.95 1892.80,1298.40"/>
    </edge>
    <edge id=":3way_139_4" function="internal">
        <lane id=":3way_139_4_0" index="0" speed="6.51" length="9.03" shape="1892.80,1301.60 1895.25,1301.95 1897.00,1303.00 1898.05,1304.75 1898.40,1307.20"/>
    </edge>
    <edge id=":3way_139_5" function="internal">
        <lane id=":3way_139_5_0" index="0" speed="8.00" length="14.19" shape="1892.80,1301.60 1896.65,1301.05 1899.40,1299.40 1901.05,1296.65 1901.60,1292.80"/>
    </edge>
    <edge id=":3way_14_0" function="internal">
        <lane id=":3way_14_0_0" index="0" speed="6.51" length="9.03" shape="1398.40,1892.80 1398.05,1895.25 1397.00,1897.00 1395.25,1898.05 1392.80,1898.40"/>
    </edge>
    <edge id=":3way_14_1" function="internal">
        <lane id=":3way_14_1_0" index="0" speed="8.00" length="14.19" shape="1398.40,1892.80 1398.95,1896.65 1400.60,1899.40 1403.35,1901.05 1407.20,1901.60"/>
    </edge>
    <edge id=":3way_14_2" function="internal">
        <lane id=":3way_14_2_0" index="0" speed="6.51" length="9.03" shape="1407.20,1898.40 1404.75,1898.05 1403.00,1897.00 1401.95,1895.25 1401.60,1892.80"/>
    </edge>
    <edge id=":3way_14_3" function="internal">
        <lane id=":3way_14_3_0" index="0" speed="13.89" length="14.40" shape="1407.20,1898.40 1392.80,1898.40"/>
    </edge>
    <edge id=":3way_14_4" function="internal">
        <lane id=":3way_14_4_0" index="0" speed="13.89" length="14.40" shape="1392.80,1901.60 1407.20,1901.60"/>
    </edge>
    <edge id=":3way_14_5" function="internal">
        <lane id=":3way_14_5_0" index="0" speed="8.00" length="4.07" shape="1392.80,1901.60 1396.65,1901.05 1396.80,1900.96"/>
    </edge>
    <edge id=":3way_14_6" function="internal">
        <lane id=":3way_14_6_0" index="0" speed="8.00" length="10.13" shape="1396.80,1900.96 1399.40,1899.40 1401.05,1896.65 1401.60,1892.80"/>
    </edge>
    <edge id=":3way_140_0" function="internal">
        <lane id=":3way_140_0_0" index="0" speed="13.89" length="14.40" shape="-1.60,1192.80 -1.60,1207.20"/>
    </edge>
    <edge id=":3way_140_1" function="internal">
        <lane id=":3way_140_1_0" index="0" speed="8.00" length="4.07" shape="-1.60,1192.80 -1.05,1196.65 -0.96,1196.80"/>
    </edge>
    <edge id=":3way_140_6" function="internal">
        <lane id=":3way_140_6_0" index="0" speed="8.00" length="10.13" shape="-0.96,1196.80 0.60,1199.40 3.35,1201.05 7.20,1201.60"/>
    </edge>
    <edge id=":3way_140_2" function="internal">
        <lane id=":3way_140_2_0" index="0" speed="6.51" length="9.03" shape="7.20,1198.40 4.75,1198.05 3.00,1197.00 1.95,1195.25 1.60,1192.80"/>
    </edge>
    <edge id=":3way_140_3" function="internal">
        <lane id=":3way_140_3_0" index="0" speed="8.00" length="14.19" shape="7.20,1198.40 3.35,1198.95 0.60,1200.60 -1.05,1203.35 -1.60,1207.20"/>
    </edge>
    <edge id=":3way_140_4" function="internal">
        <lane id=":3way_140_4_0" index="0" speed="6.51" length="9.03" shape="1.60,1207.20 1.95,1204.75 3.00,1203.00 4.75,1201.95 7.20,1201.60"/>
    </edge>
    <edge id=":3way_140_5" function="internal">
        <lane id=":3way_140_5_0" index="0" speed="13.89" length="14.40" shape="1.60,1207.20 1.60,1192.80"/>
    </edge>
    <edge id=":3way_15_0" function="internal">
        <lane id=":3way_15_0_0" index="0" speed="6.51" length="9.03" shape="1498.40,1892.80 1498.05,1895.25 1497.00,1897.00 1495.25,1898.05 1492.80,1898.40"/>
    </edge>
    <edge id=":3way_15_1" function="internal">
        <lane id=":3way_15_1_0" index="0" speed="8.00" length="14.19" shape="1498.40,1892.80 1498.95,1896.65 1500.60,1899.40 1503.35,1901.05 1507.20,1901.60"/>
    </edge>
    <edge id=":3way_15_2" function="internal">
        <lane id=":3way_15_2_0" index="0" speed="6.51" length="9.03" shape="1507.20,1898.40 1504.75,1898.05 1503.00,1897.00 1501.95,1895.25 1501.60,1892.80"/>
    </edge>
    <edge id=":3way_15_3" function="internal">
        <lane id=":3way_15_3_0" index="0" speed="13.89" length="14.40" shape="1507.20,1898.40 1492.80,1898.40"/>
    </edge>
    <edge id=":3way_15_4" function="internal">
        <lane id=":3way_15_4_0" index="0" speed="13.89" length="14.40" shape="1492.80,1901.60 1507.20,1901.60"/>
    </edge>
    <edge id=":3way_15_5" function="internal">
        <lane id=":3way_15_5_0" index="0" speed="8.00" length="4.07" shape="1492.80,1901.60 1496.65,1901.05 1496.80,1900.96"/>
    </edge>
    <edge id=":3way_15_6" function="internal">
        <lane id=":3way_15_6_0" index="0" speed="8.00" length="10.13" shape="1496.80,1900.96 1499.40,1899.40 1501.05,1896.65 1501.60,1892.80"/>
    </edge>
    <edge id=":3way_159_0" function="internal">
        <lane id=":3way_159_0_0" index="0" speed="6.51" length="9.03" shape="1898.40,1192.80 1898.05,1195.25 1897.00,1197.00 1895.25,1198.05 1892.80,1198.40"/>
    </edge>
    <edge id=":3way_159_1" function="internal">
        <lane id=":3way_159_1_0" index="0" speed="13.89" length="14.40" shape="1898.40,1192.80 1898.40,1207.20"/>
    </edge>
    <edge id=":3way_159_2" function="internal">
        <lane id=":3way_159_2_0" index="0" speed="13.89" length="14.40" shape="1901.60,1207.20 1901.60,1192.80"/>
    </edge>
    <edge id=":3way_159_3" function="internal">
        <lane id=":3way_159_3_0" index="0" speed="8.00" length="4.07" shape="1901.60,1207.20 1901.05,1203.35 1900.96,1203.20"/>
    </edge>
    <edge id=":3way_159_6" function="internal">
        <lane id=":3way_159_6_0" index="0" speed="8.00" length="10.13" shape="1900.96,1203.20 1899.40,1200.60 1896.65,1198.95 1892.80,1198.40"/>
    </edge>
    <edge id=":3way_159_4" function="internal">
        <lane id=":3way_159_4_0" index="0" speed="6.51" length="9.03" shape="1892.80,1201.60 1895.25,1201.95 1897.00,1203.00 1898.05,1204.75 1898.40,1207.20"/>
    </edge>
    <edge id=":3way_159_5" function="internal">
        <lane id=":3way_159_5_0" index="0" speed="8.00" length="14.19" shape="1892.80,1201.60 1896.65,1201.05 1899.40,1199.40 1901.05,1196.65 1901.60,1192.80"/>
    </edge>
    <edge id=":3way_16_0" function="internal">
        <lane id=":3way_16_0_0" index="0" speed="6.51" length="9.03" shape="1598.40,1892.80 1598.05,1895.25 1597.00,1897.00 1595.25,1898.05 1592.80,1898.40"/>
    </edge>
    <edge id=":3way_16_1" function="internal">
        <lane id=":3way_16_1_0" index="0" speed="8.00" length="14.19" shape="1598.40,1892.80 1598.95,1896.65 1600.60,1899.40 1603.35,1901.05 1607.20,1901.60"/>
    </edge>
    <edge id=":3way_16_2" function="internal">
        <lane id=":3way_16_2_0" index="0" speed="6.51" length="9.03" shape="1607.20,1898.40 1604.75,1898.05 1603.00,1897.00 1601.95,1895.25 1601.60,1892.80"/>
    </edge>
    <edge id=":3way_16_3" function="internal">
        <lane id=":3way_16_3_0" index="0" speed="13.89" length="14.40" shape="1607.20,1898.40 1592.80,1898.40"/>
    </edge>
    <edge id=":3way_16_4" function="internal">
        <lane id=":3way_16_4_0" index="0" speed="13.89" length="14.40" shape="1592.80,1901.60 1607.20,1901.60"/>
    </edge>
    <edge id=":3way_16_5" function="internal">
        <lane id=":3way_16_5_0" index="0" speed="8.00" length="4.07" shape="1592.80,1901.60 1596.65,1901.05 1596.80,1900.96"/>
    </edge>
    <edge id=":3way_16_6" function="internal">
        <lane id=":3way_16_6_0" index="0" speed="8.00" length="10.13" shape="1596.80,1900.96 1599.40,1899.40 1601.05,1896.65 1601.60,1892.80"/>
    </edge>
    <edge id=":3way_160_0" function="internal">
        <lane id=":3way_160_0_0" index="0" speed="13.89" length="14.40" shape="-1.60,1092.80 -1.60,1107.20"/>
    </edge>
    <edge id=":3way_160_1" function="internal">
        <lane id=":3way_160_1_0" index="0" speed="8.00" length="4.07" shape="-1.60,1092.80 -1.05,1096.65 -0.96,1096.80"/>
    </edge>
    <edge id=":3way_160_6" function="internal">
        <lane id=":3way_160_6_0" index="0" speed="8.00" length="10.13" shape="-0.96,1096.80 0.60,1099.40 3.35,1101.05 7.20,1101.60"/>
    </edge>
    <edge id=":3way_160_2" function="internal">
        <lane id=":3way_160_2_0" index="0" speed="6.51" length="9.03" shape="7.20,1098.40 4.75,1098.05 3.00,1097.00 1.95,1095.25 1.60,1092.80"/>
    </edge>
    <edge id=":3way_160_3" function="internal">
        <lane id=":3way_160_3_0" index="0" speed="8.00" length="14.19" shape="7.20,1098.40 3.35,1098.95 0.60,1100.60 -1.05,1103.35 -1.60,1107.20"/>
    </edge>
    <edge id=":3way_160_4" function="internal">
        <lane id=":3way_160_4_0" index="0" speed="6.51" length="9.03" shape="1.60,1107.20 1.95,1104.75 3.00,1103.00 4.75,1101.95 7.20,1101.60"/>
    </edge>
    <edge id=":3way_160_5" function="internal">
        <lane id=":3way_160_5_0" index="0" speed="13.89" length="14.40" shape="1.60,1107.20 1.60,1092.80"/>
    </edge>
    <edge id=":3way_17_0" function="internal">
        <lane id=":3way_17_0_0" index="0" speed="6.51" length="9.03" shape="1698.40,1892.80 1698.05,1895.25 1697.00,1897.00 1695.25,1898.05 1692.80,1898.40"/>
    </edge>
    <edge id=":3way_17_1" function="internal">
        <lane id=":3way_17_1_0" index="0" speed="8.00" length="14.19" shape="1698.40,1892.80 1698.95,1896.65 1700.60,1899.40 1703.35,1901.05 1707.20,1901.60"/>
    </edge>
    <edge id=":3way_17_2" function="internal">
        <lane id=":3way_17_2_0" index="0" speed="6.51" length="9.03" shape="1707.20,1898.40 1704.75,1898.05 1703.00,1897.00 1701.95,1895.25 1701.60,1892.80"/>
    </edge>
    <edge id=":3way_17_3" function="internal">
        <lane id=":3way_17_3_0" index="0" speed="13.89" length="14.40" shape="1707.20,1898.40 1692.80,1898.40"/>
    </edge>
    <edge id=":3way_17_4" function="internal">
        <lane id=":3way_17_4_0" index="0" speed="13.89" length="14.40" shape="1692.80,1901.60 1707.20,1901.60"/>
    </edge>
    <edge id=":3way_17_5" function="internal">
        <lane id=":3way_17_5_0" index="0" speed="8.00" length="4.07" shape="1692.80,1901.60 1696.65,1901.05 1696.80,1900.96"/>
    </edge>
    <edge id=":3way_17_6" function="internal">
        <lane id=":3way_17_6_0" index="0" speed="8.00" length="10.13" shape="1696.80,1900.96 1699.40,1899.40 1701.05,1896.65 1701.60,1892.80"/>
    </edge>
    <edge id=":3way_179_0" function="internal">
        <lane id=":3way_179_0_0" index="0" speed="6.51" length="9.03" shape="1898.40,1092.80 1898.05,1095.25 1897.00,1097.00 1895.25,1098.05 1892.80,1098.40"/>
    </edge>
    <edge id=":3way_179_1" function="internal">
        <lane id=":3way_179_1_0" index="0" speed="13.89" length="14.40" shape="1898.40,1092.80 1898.40,1107.20"/>
    </edge>
    <edge id=":3way_179_2" function="internal">
        <lane id=":3way_179_2_0" index="0" speed="13.89" length="14.40" shape="1901.60,1107.20 1901.60,1092.80"/>
    </edge>
    <edge id=":3way_179_3" function="internal">
        <lane id=":3way_179_3_0" index="0" speed="8.00" length="4.07" shape="1901.60,1107.20 1901.05,1103.35 1900.96,1103.20"/>
    </edge>
    <edge id=":3way_179_6" function="internal">
        <lane id=":3way_179_6_0" index="0" speed="8.00" length="10.13" shape="1900.96,1103.20 1899.40,1100.60 1896.65,1098.95 1892.80,1098.40"/>
    </edge>
    <edge id=":3way_179_4" function="internal">
        <lane id=":3way_179_4_0" index="0" speed="6.51" length="9.03" shape="1892.80,1101.60 1895.25,1101.95 1897.00,1103.00 1898.05,1104.75 1898.40,1107.20"/>
    </edge>
    <edge id=":3way_179_5" function="internal">
        <lane id=":3way_179_5_0" index="0" speed="8.00" length="14.19" shape="1892.80,1101.60 1896.65,1101.05 1899.40,1099.40 1901.05,1096.65 1901.60,1092.80"/>
    </edge>
    <edge id=":3way_18_0" function="internal">
        <lane id=":3way_18_0_0" index="0" speed="6.51" length="9.03" shape="1798.40,1892.80 1798.05,1895.25 1797.00,1897.00 1795.25,1898.05 1792.80,1898.40"/>
    </edge>
    <edge id=":3way_18_1" function="internal">
        <lane id=":3way_18_1_0" index="0" speed="8.00" length="14.19" shape="1798.40,1892.80 1798.95,1896.65 1800.60,1899.40 1803.35,1901.05 1807.20,1901.60"/>
    </edge>
    <edge id=":3way_18_2" function="internal">
        <lane id=":3way_18_2_0" index="0" speed="6.51" length="9.03" shape="1807.20,1898.40 1804.75,1898.05 1803.00,1897.00 1801.95,1895.25 1801.60,1892.80"/>
    </edge>
    <edge id=":3way_18_3" function="internal">
        <lane id=":3way_18_3_0" index="0" speed="13.89" length="14.40" shape="1807.20,1898.40 1792.80,1898.40"/>
    </edge>
    <edge id=":3way_18_4" function="internal">
        <lane id=":3way_18_4_0" index="0" speed="13.89" length="14.40" shape="1792.80,1901.60 1807.20,1901.60"/>
    </edge>
    <edge id=":3way_18_5" function="internal">
        <lane id=":3way_18_5_0" index="0" speed="8.00" length="4.07" shape="1792.80,1901.60 1796.65,1901.05 1796.80,1900.96"/>
    </edge>
    <edge id=":3way_18_6" function="internal">
        <lane id=":3way_18_6_0" index="0" speed="8.00" length="10.13" shape="1796.80,1900.96 1799.40,1899.40 1801.05,1896.65 1801.60,1892.80"/>
    </edge>
    <edge id=":3way_180_0" function="internal">
        <lane id=":3way_180_0_0" index="0" speed="13.89" length="14.40" shape="-1.60,992.80 -1.60,1007.20"/>
    </edge>
    <edge id=":3way_180_1" function="internal">
        <lane id=":3way_180_1_0" index="0" speed="8.00" length="4.07" shape="-1.60,992.80 -1.05,996.65 -0.96,996.80"/>
    </edge>
    <edge id=":3way_180_6" function="internal">
        <lane id=":3way_180_6_0" index="0" speed="8.00" length="10.13" shape="-0.96,996.80 0.60,999.40 3.35,1001.05 7.20,1001.60"/>
    </edge>
    <edge id=":3way_180_2" function="internal">
        <lane id=":3way_180_2_0" index="0" speed="6.51" length="9.03" shape="7.20,998.40 4.75,998.05 3.00,997.00 1.95,995.25 1.60,992.80"/>
    </edge>
    <edge id=":3way_180_3" function="internal">
        <lane id=":3way_180_3_0" index="0" speed="8.00" length="14.19" shape="7.20,998.40 3.35,998.95 0.60,1000.60 -1.05,1003.35 -1.60,1007.20"/>
    </edge>
    <edge id=":3way_180_4" function="internal">
        <lane id=":3way_180_4_0" index="0" speed="6.51" length="9.03" shape="1.60,1007.20 1.95,1004.75 3.00,1003.00 4.75,1001.95 7.20,1001.60"/>
    </edge>
    <edge id=":3way_180_5" function="internal">
        <lane id=":3way_180_5_0" index="0" speed="13.89" length="14.40" shape="1.60,1007.20 1.60,992.80"/>
    </edge>
    <edge id=":3way_199_0" function="internal">
        <lane id=":3way_199_0_0" index="0" speed="6.51" length="9.03" shape="1898.40,992.80 1898.05,995.25 1897.00,997.00 1895.25,998.05 1892.80,998.40"/>
    </edge>
    <edge id=":3way_199_1" function="internal">
        <lane id=":3way_199_1_0" index="0" speed="13.89" length="14.40" shape="1898.40,992.80 1898.40,1007.20"/>
    </edge>
    <edge id=":3way_199_2" function="internal">
        <lane id=":3way_199_2_0" index="0" speed="13.89" length="14.40" shape="1901.60,1007.20 1901.60,992.80"/>
    </edge>
    <edge id=":3way_199_3" function="internal">
        <lane id=":3way_199_3_0" index="0" speed="8.00" length="4.07" shape="1901.60,1007.20 1901.05,1003.35 1900.96,1003.20"/>
    </edge>
    <edge id=":3way_199_6" function="internal">
        <lane id=":3way_199_6_0" index="0" speed="8.00" length="10.13" shape="1900.96,1003.20 1899.40,1000.60 1896.65,998.95 1892.80,998.40"/>
    </edge>
    <edge id=":3way_199_4" function="internal">
        <lane id=":3way_199_4_0" index="0" speed="6.51" length="9.03" shape="1892.80,1001.60 1895.25,1001.95 1897.00,1003.00 1898.05,1004.75 1898.40,1007.20"/>
    </edge>
    <edge id=":3way_199_5" function="internal">
        <lane id=":3way_199_5_0" index="0" speed="8.00" length="14.19" shape="1892.80,1001.60 1896.65,1001.05 1899.40,999.40 1901.05,996.65 1901.60,992.80"/>
    </edge>
    <edge id=":3way_2_0" function="internal">
        <lane id=":3way_2_0_0" index="0" speed="6.51" length="9.03" shape="198.40,1892.80 198.05,1895.25 197.00,1897.00 195.25,1898.05 192.80,1898.40"/>
    </edge>
    <edge id=":3way_2_1" function="internal">
        <lane id=":3way_2_1_0" index="0" speed="8.00" length="14.19" shape="198.40,1892.80 198.95,1896.65 200.60,1899.40 203.35,1901.05 207.20,1901.60"/>
    </edge>
    <edge id=":3way_2_2" function="internal">
        <lane id=":3way_2_2_0" index="0" speed="6.51" length="9.03" shape="207.20,1898.40 204.75,1898.05 203.00,1897.00 201.95,1895.25 201.60,1892.80"/>
    </edge>
    <edge id=":3way_2_3" function="internal">
        <lane id=":3way_2_3_0" index="0" speed="13.89" length="14.40" shape="207.20,1898.40 192.80,1898.40"/>
    </edge>
    <edge id=":3way_2_4" function="internal">
        <lane id=":3way_2_4_0" index="0" speed="13.89" length="14.40" shape="192.80,1901.60 207.20,1901.60"/>
    </edge>
    <edge id=":3way_2_5" function="internal">
        <lane id=":3way_2_5_0" index="0" speed="8.00" length="4.07" shape="192.80,1901.60 196.65,1901.05 196.80,1900.96"/>
    </edge>
    <edge id=":3way_2_6" function="internal">