<routes xmlns:xsi="http://www.w3.org/2001/XMLSchema-instance" xsi:noNamespaceSchemaLocation="http://sumo.dlr.de/xsd/routes_file.xsd">
<trip id="0" depart="0.0" fromJunction="4way_20" toJunction="4way_13"/>
<trip id="1" depart="1.1111" fromJunction="4way_13" toJunction="4way_25"/>
<trip id="2" depart="2.2222" fromJunction="4way_8" toJunction="3way_18"/>
<trip id="3" depart="3.3333" fromJunction="4way_10" toJunction="3way_12"/>
<trip id="4" depart="4.4444" fromJunction="3way_24" toJunction="4way_22"/>
<trip id="5" depart="5.5555" fromJunction="4way_7" toJunction="4way_15"/>
<trip id="6" depart="6.6666" fromJunction="4way_16" toJunction="4way_19"/>
<trip id="7" depart="7.777699999999999" fromJunction="4way_21" toJunction="3way_1"/>
<trip id="8" depart="8.8888" fromJunction="4way_27" toJunction="4way_9"/>
<trip id="9" depart="9.9999" fromJunction="4way_15" toJunction="4way_28"/>
<trip id="10" depart="11.111" fromJunction="4way_9" toJunction="3way_12"/>
<trip id="11" depart="12.2221" fromJunction="4way_8" toJunction="3way_4"/>
<trip id="12" depart="13.3332" fromJunction="4way_22" toJunction="3way_11"/>
<trip id="13" depart="14.4443" fromJunction="3way_18" toJunction="4way_7"/>
<trip id="14" depart="15.555399999999999" fromJunction="4way_9" toJunction="3way_34"/>
<trip id="15" depart="16.6665" fromJunction="4way_19" toJunction="3way_12"/>
<trip id="16" depart="17.7776" fromJunction="4way_25" toJunction="3way_1"/>
<trip id="17" depart="18.8887" fromJunction="4way_14" toJunction="4way_22"/>
<trip id="18" depart="19.9998" fromJunction="3way_18" toJunction="3way_31"/>
<trip id="19" depart="21.1109" fromJunction="3way_2" toJunction="4way_20"/>
<trip id="20" depart="22.222" fromJunction="3way_11" toJunction="3way_23"/>
<trip id="21" depart="23.333099999999998" fromJunction="3way_31" toJunction="3way_32"/>
<trip id="22" depart="24.4442" fromJunction="3way_12" toJunction="4way_19"/>
<trip id="23" depart="25.5553" fromJunction="3way_4" toJunction="4way_28"/>
<trip id="24" depart="26.6664" fromJunction="3way_17" toJunction="3way_23"/>
<trip id="25" depart="27.7775" fromJunction="3way_34" toJunction="4way_8"/>
<trip id="26" depart="28.8886" fromJunction="3way_29" toJunction="3way_12"/>
<trip id="27" depart="29.9997" fromJunction="3way_4" toJunction="3way_17"/>
<trip id="28" depart="31.110799999999998" fromJunction="3way_11" toJunction="4way_14"/>
<trip id="29" depart="32.2219" fromJunction="3way_31" toJunction="3way_23"/>
<trip id="30" depart="33.333" fromJunction="3way_4" toJunction="4way_21"/>
<trip id="31" depart="34.4441" fromJunction="3way_4" toJunction="4way_21"/>
<trip id="32" depart="35.5552" fromJunction="3way_12" toJunction="4way_28"/>
<trip id="33" depart="36.6663" fromJunction="4way_25" toJunction="4way_28"/>
<trip id="34" depart="37.7774" fromJunction="3way_2" toJunction="4way_26"/>
<trip id="35" depart="38.8885" fromJunction="3way_4" toJunction="3way_33"/>
<trip id="36" depart="39.9996" fromJunction="3way_4" toJunction="3way_33"/>
<trip id="37" depart="41.1107" fromJunction="3way_18" toJunction="3way_32"/>
<trip id="38" depart="42.2218" fromJunction="4way_20" toJunction="3way_3"/>
<trip id="39" depart="43.3329" fromJunction="3way_34" toJunction="4way_19"/>
<trip id="40" depart="44.444" fromJunction="3way_4" toJunction="4way_7"/>
<trip id="41" depart="45.555099999999996" fromJunction="4way_16" toJunction="4way_19"/>
<trip id="42" depart="46.666199999999996" fromJunction="4way_14" toJunction="3way_32"/>
<trip id="43" depart="47.7773" fromJunction="4way_20" toJunction="3way_11"/>
<trip id="44" depart="48.8884" fromJunction="3way_17" toJunction="3way_33"/>
<trip id="45" depart="49.9995" fromJunction="3way_1" toJunction="4way_19"/>
<trip id="46" depart="51.1106" fromJunction="3way_1" toJunction="4way_21"/>
<trip id="47" depart="52.2217" fromJunction="3way_34" toJunction="4way_14"/>
<trip id="48" depart="53.3328" fromJunction="4way_22" toJunction="4way_26"/>
<trip id="49" depart="54.4439" fromJunction="4way_19" toJunction="3way_29"/>
<trip id="50" depart="55.555" fromJunction="4way_22" toJunction="3way_29"/>
<trip id="51" depart="56.6661" fromJunction="4way_27" toJunction="3way_12"/>
<trip id="52" depart="57.7772" fromJunction="3way_33" toJunction="4way_20"/>
<trip id="53" depart="58.8883" fromJunction="3way_24" toJunction="4way_21"/>
<trip id="54" depart="59.9994" fromJunction="4way_19" toJunction="4way_10"/>
<trip id="55" depart="61.1105" fromJunction="4way_20" toJunction="4way_10"/>
<trip id="56" depart="62.221599999999995" fromJunction="4way_7" toJunction="4way_26"/>
<trip id="57" depart="63.332699999999996" fromJunction="4way_8" toJunction="4way_22"/>
<trip id="58" depart="64.4438" fromJunction="4way_25" toJunction="3way_18"/>
<trip id="59" depart="65.5549" fromJunction="3way_33" toJunction="3way_1"/>
<trip id="60" depart="66.666" fromJunction="3way_33" toJunction="4way_14"/>
<trip id="61" depart="67.7771" fromJunction="3way_18" toJunction="4way_25"/>
<trip id="62" depart="68.8882" fromJunction="3way_33" toJunction="3way_11"/>
<trip id="63" depart="69.9993" fromJunction="4way_8" toJunction="4way_19"/>
<trip id="64" depart="71.1104" fromJunction="3way_18" toJunction="4way_8"/>
<trip id="65" depart="72.22149999999999" fromJunction="3way_31" toJunction="4way_10"/>
<trip id="66" depart="73.3326" fromJunction="4way_10" toJunction="3way_18"/>
<trip id="67" depart="74.44369999999999" fromJunction="4way_20" toJunction="4way_15"/>
<trip id="68" depart="75.5548" fromJunction="4way_16" toJunction="3way_4"/>
<trip id="69" depart="76.6659" fromJunction="4way_28" toJunction="4way_20"/>
<trip id="70" depart="77.777" fromJunction="4way_27" toJunction="3way_11"/>
<trip id="71" depart="78.8881" fromJunction="4way_25" toJunction="3way_17"/>
<trip id="72" depart="79.9992" fromJunction="4way_27" toJunction="3way_4"/>
<trip id="73" depart="81.1103" fromJunction="4way_19" toJunction="4way_15"/>
<trip id="74" depart="82.2214" fromJunction="3way_3" toJunction="3way_18"/>
<trip id="75" depart="83.3325" fromJunction="3way_12" toJunction="4way_20"/>
<trip id="76" depart="84.4436" fromJunction="4way_27" toJunction="4way_26"/>
<trip id="77" depart="85.5547" fromJunction="4way_27" toJunction="4way_28"/>
<trip id="78" depart="86.6658" fromJunction="3way_31" toJunction="3way_1"/>
<trip id="79" depart="87.7769" fromJunction="3way_17" toJunction="4way_26"/>
<trip id="80" depart="88.888" fromJunction="3way_2" toJunction="4way_7"/>
<trip id="81" depart="89.9991" fromJunction="3way_1" toJunction="3way_23"/>
<trip id="82" depart="91.11019999999999" fromJunction="3way_29" toJunction="4way_15"/>
<trip id="83" depart="92.2213" fromJunction="4way_16" toJunction="3way_31"/>
<trip id="84" depart="93.33239999999999" fromJunction="3way_2" toJunction="4way_20"/>
<trip id="85" depart="94.4435" fromJunction="4way_25" toJunction="3way_17"/>
<trip id="86" depart="95.5546" fromJunction="3way_29" toJunction="4way_19"/>
<trip id="87" depart="96.6657" fromJunction="4way_25" toJunction="4way_16"/>
<trip id="88" depart="97.7768" fromJunction="4way_19" toJunction="4way_13"/>
<trip id="89" depart="98.8879" fromJunction="3way_33" toJunction="4way_26"/>
<trip id="90" depart="99.999" fromJunction="3way_23" toJunction="3way_24"/>
<trip id="91" depart="101.1101" fromJunction="4way_22" toJunction="3way_17"/>
<trip id="92" depart="102.2212" fromJunction="3way_6" toJunction="4way_26"/>
<trip id="93" depart="103.3323" fromJunction="3way_34" toJunction="3way_29"/>
<trip id="94" depart="104.4434" fromJunction="3way_18" toJunction="3way_2"/>
<trip id="95" depart="105.5545" fromJunction="4way_20" toJunction="3way_33"/>
<trip id="96" depart="106.6656" fromJunction="3way_17" toJunction="3way_24"/>
<trip id="97" depart="107.77669999999999" fromJunction="3way_3" toJunction="3way_1"/>
<trip id="98" depart="108.8878" fromJunction="3way_12" toJunction="4way_14"/>
<trip id="99" depart="109.99889999999999" fromJunction="4way_10" toJunction="4way_13"/>
<trip id="100" depart="111.11" fromJunction="3way_23" toJunction="4way_28"/>
<trip id="101" depart="112.22109999999999" fromJunction="3way_34" toJunction="4way_14"/>
<trip id="102" depart="113.3322" fromJunction="4way_9" toJunction="3way_1"/>
<trip id="103" depart="114.4433" fromJunction="3way_24" toJunction="3way_32"/>
<trip id="104" depart="115.5544" fromJunction="4way_21" toJunction="4way_19"/>
<trip id="105" depart="116.6655" fromJunction="4way_27" toJunction="4way_8"/>
<trip id="106" depart="117.7766" fromJunction="4way_15" toJunction="3way_34"/>
<trip id="107" depart="118.8877" fromJunction="4way_22" toJunction="3way_17"/>
<trip id="108" depart="119.9988" fromJunction="3way_23" toJunction="4way_14"/>
<trip id="109" depart="121.1099" fromJunction="4way_26" toJunction="4way_22"/>
<trip id="110" depart="122.221" fromJunction="3way_23" toJunction="3way_34"/>
<trip id="111" depart="123.3321" fromJunction="3way_1" toJunction="4way_7"/>
<trip id="112" depart="124.44319999999999" fromJunction="3way_18" toJunction="3way_23"/>
<trip id="113" depart="125.5543" fromJunction="3way_12" toJunction="3way_31"/>
<trip id="114" depart="126.66539999999999" fromJunction="4way_19" toJunction="3way_34"/>
<trip id="115" depart="127.7765" fromJunction="3way_4" toJunction="4way_27"/>
<trip id="116" depart="128.8876" fromJunction="3way_11" toJunction="4way_7"/>
<trip id="117" depart="129.99869999999999" fromJunction="3way_24" toJunction="4way_20"/>
<trip id="118" depart="131.1098" fromJunction="3way_17" toJunction="4way_19"/>
<trip id="119" depart="132.2209" fromJunction="3way_6" toJunction="3way_11"/>
<trip id="120" depart="133.332" fromJunction="4way_22" toJunction="3way_31"/>
<trip id="121" depart="134.4431" fromJunction="4way_26" toJunction="4way_9"/>
<trip id="122" depart="135.5542" fromJunction="3way_3" toJunction="4way_10"/>
<trip id="123" depart="136.6653" fromJunction="4way_19" toJunction="4way_13"/>
<trip id="124" depart="137.7764" fromJunction="3way_33" toJunction="4way_22"/>
<trip id="125" depart="138.8875" fromJunction="3way_4" toJunction="3way_29"/>
<trip id="126" depart="139.9986" fromJunction="4way_16" toJunction="3way_1"/>
<trip id="127" depart="141.1097" fromJunction="4way_15" toJunction="4way_14"/>
<trip id="128" depart="142.2208" fromJunction="4way_19" toJunction="3way_33"/>
<trip id="129" depart="143.3319" fromJunction="3way_6" toJunction="3way_3"/>
<trip id="130" depart="144.44299999999998" fromJunction="4way_10" toJunction="4way_28"/>
<trip id="131" depart="145.5541" fromJunction="4way_22" toJunction="3way_32"/>
<trip id="132" depart="146.6652" fromJunction="4way_22" toJunction="3way_29"/>
<trip id="133" depart="147.7763" fromJunction="4way_15" toJunction="4way_22"/>
<trip id="134" depart="148.88739999999999" fromJunction="4way_27" toJunction="4way_8"/>
<trip id="135" depart="149.9985" fromJunction="4way_27" toJunction="3way_33"/>
<trip id="136" depart="151.1096" fromJunction="3way_1" toJunction="4way_25"/>
<trip id="137" depart="152.2207" fromJunction="3way_11" toJunction="3way_31"/>
<trip id="138" depart="153.3318" fromJunction="3way_6" toJunction="4way_28"/>
<trip id="139" depart="154.4429" fromJunction="4way_8" toJunction="3way_6"/>
<trip id="140" depart="155.554" fromJunction="3way_11" toJunction="3way_31"/>
<trip id="141" depart="156.6651" fromJunction="3way_23" toJunction="4way_21"/>
<trip id="142" depart="157.7762" fromJunction="3way_29" toJunction="4way_7"/>
<trip id="143" depart="158.8873" fromJunction="4way_27" toJunction="3way_4"/>
<trip id="144" depart="159.9984" fromJunction="4way_22" toJunction="4way_28"/>
<trip id="145" depart="161.1095" fromJunction="4way_9" toJunction="4way_16"/>
<trip id="146" depart="162.2206" fromJunction="3way_3" toJunction="3way_32"/>
<trip id="147" depart="163.33169999999998" fromJunction="3way_29" toJunction="3way_18"/>
<trip id="148" depart="164.4428" fromJunction="3way_2" toJunction="3way_11"/>
<trip id="149" depart="165.5539" fromJunction="3way_1" toJunction="4way_26"/>
<trip id="150" depart="166.665" fromJunction="3way_11" toJunction="4way_9"/>
<trip id="151" depart="167.77609999999999" fromJunction="3way_29" toJunction="4way_14"/>
<trip id="152" depart="168.8872" fromJunction="4way_13" toJunction="3way_18"/>
<trip id="153" depart="169.9983" fromJunction="4way_26" toJunction="4way_27"/>
<trip id="154" depart="171.1094" fromJunction="3way_11" toJunction="3way_34"/>
<trip id="155" depart="172.2205" fromJunction="3way_33" toJunction="3way_2"/>
<trip id="156" depart="173.3316" fromJunction="3way_12" toJunction="3way_34"/>
<trip id="157" depart="174.4427" fromJunction="4way_20" toJunction="4way_14"/>
<trip id="158" depart="175.5538" fromJunction="3way_24" toJunction="3way_33"/>
<trip id="159" depart="176.6649" fromJunction="4way_15" toJunction="3way_17"/>
<trip id="160" depart="177.776" fromJunction="4way_20" toJunction="3way_2"/>
<trip id="161" depart="178.8871" fromJunction="3way_31" toJunction="3way_34"/>
<trip id="162" depart="179.9982" fromJunction="3way_34" toJunction="4way_19"/>
<trip id="163" depart="181.1093" fromJunction="3way_23" toJunction="3way_31"/>
<trip id="164" depart="182.22039999999998" fromJunction="3way_2" toJunction="3way_12"/>
<trip id="165" depart="183.3315" fromJunction="3way_3" toJunction="4way_15"/>
<trip id="166" depart="184.4426" fromJunction="3way_33" toJunction="4way_7"/>
<trip id="167" depart="185.5537" fromJunction="4way_22" toJunction="4way_19"/>
<trip id="168" depart="186.66479999999999" fromJunction="3way_2" toJunction="4way_8"/>
<trip id="169" depart="187.7759" fromJunction="4way_7" toJunction="3way_18"/>
<trip id="170" depart="188.887" fromJunction="4way_14" toJunction="4way_13"/>
<trip id="171" depart="189.9981" fromJunction="3way_11" toJunction="3way_34"/>
<trip id="172" depart="191.1092" fromJunction="4way_22" toJunction="3way_24"/>
<trip id="173" depart="192.2203" fromJunction="4way_10" toJunction="3way_17"/>
<trip id="174" depart="193.3314" fromJunction="3way_12" toJunction="4way_13"/>
<trip id="175" depart="194.4425" fromJunction="3way_12" toJunction="4way_10"/>
<trip id="176" depart="195.5536" fromJunction="3way_24" toJunction="4way_26"/>
<trip id="177" depart="196.66469999999998" fromJunction="4way_20" toJunction="4way_10"/>
<trip id="178" depart="197.7758" fromJunction="3way_32" toJunction="4way_20"/>
<trip id="179" depart="198.8869" fromJunction="4way_8" toJunction="4way_9"/>
<trip id="180" depart="199.998" fromJunction="3way_17" toJunction="3way_29"/>
<trip id="181" depart="201.10909999999998" fromJunction="4way_22" toJunction="4way_15"/>
<trip id="182" depart="202.2202" fromJunction="4way_19" toJunction="3way_12"/>
<trip id="183" depart="203.3313" fromJunction="3way_12" toJunction="4way_27"/>
<trip id="184" depart="204.4424" fromJunction="4way_19" toJunction="4way_22"/>
<trip id="185" depart="205.55349999999999" fromJunction="4way_16" toJunction="4way_21"/>
<trip id="186" depart="206.6646" fromJunction="3way_17" toJunction="4way_21"/>
<trip id="187" depart="207.7757" fromJunction="3way_24" toJunction="4way_8"/>
<trip id="188" depart="208.8868" fromJunction="3way_18" toJunction="3way_3"/>
<trip id="189" depart="209.9979" fromJunction="4way_27" toJunction="3way_34"/>
<trip id="190" depart="211.109" fromJunction="4way_22" toJunction="3way_2"/>
<trip id="191" depart="212.2201" fromJunction="3way_17" toJunction="3way_1"/>
<trip id="192" depart="213.3312" fromJunction="4way_16" toJunction="3way_24"/>
<trip id="193" depart="214.4423" fromJunction="4way_22" toJunction="3way_4"/>
<trip id="194" depart="215.55339999999998" fromJunction="3way_12" toJunction="4way_27"/>
<trip id="195" depart="216.6645" fromJunction="3way_29" toJunction="3way_32"/>
<trip id="196" depart="217.7756" fromJunction="3way_2" toJunction="4way_25"/>
<trip id="197" depart="218.8867" fromJunction="3way_18" toJunction="3way_1"/>
<trip id="198" depart="219.99779999999998" fromJunction="3way_34" toJunction="3way_3"/>
<trip id="199" depart="221.1089" fromJunction="3way_34" toJunction="3way_29"/>
<trip id="200" depart="222.22" fromJunction="3way_1" toJunction="3way_11"/>
<trip id="201" depart="223.3311" fromJunction="4way_25" toJunction="3way_4"/>
<trip id="202" depart="224.44219999999999" fromJunction="3way_17" toJunction="3way_18"/>
<trip id="203" depart="225.5533" fromJunction="3way_6" toJunction="4way_8"/>
<trip id="204" depart="226.6644" fromJunction="3way_3" toJunction="4way_28"/>
<trip id="205" depart="227.7755" fromJunction="3way_33" toJunction="4way_15"/>
<trip id="206" depart="228.8866" fromJunction="4way_14" toJunction="3way_29"/>
<trip id="207" depart="229.9977" fromJunction="4way_14" toJunction="3way_29"/>
<trip id="208" depart="231.1088" fromJunction="3way_18" toJunction="4way_7"/>
<trip id="209" depart="232.2199" fromJunction="3way_33" toJunction="4way_13"/>
<trip id="210" depart="233.331" fromJunction="3way_18" toJunction="4way_20"/>
<trip id="211" depart="234.44209999999998" fromJunction="4way_21" toJunction="3way_31"/>
<trip id="212" depart="235.5532" fromJunction="3way_2" toJunction="4way_16"/>
<trip id="213" depart="236.6643" fromJunction="3way_31" toJunction="3way_29"/>
<trip id="214" depart="237.7754" fromJunction="4way_28" toJunction="4way_21"/>
<trip id="215" depart="238.88649999999998" fromJunction="4way_10" toJunction="4way_28"/>
<trip id="216" depart="239.9976" fromJunction="4way_28" toJunction="3way_33"/>
<trip id="217" depart="241.1087" fromJunction="3way_4" toJunction="3way_29"/>
<trip id="218" depart="242.2198" fromJunction="3way_29" toJunction="4way_22"/>
<trip id="219" depart="243.33089999999999" fromJunction="3way_2" toJunction="4way_20"/>
<trip id="220" depart="244.442" fromJunction="4way_10" toJunction="4way_26"/>
<trip id="221" depart="245.5531" fromJunction="3way_24" toJunction="3way_34"/>
<trip id="222" depart="246.6642" fromJunction="4way_26" toJunction="3way_31"/>
<trip id="223" depart="247.7753" fromJunction="3way_17" toJunction="3way_29"/>
<trip id="224" depart="248.88639999999998" fromJunction="3way_33" toJunction="3way_12"/>
<trip id="225" depart="249.9975" fromJunction="3way_29" toJunction="4way_21"/>
<trip id="226" depart="251.1086" fromJunction="4way_22" toJunction="4way_7"/>
<trip id="227" depart="252.2197" fromJunction="4way_27" toJunction="4way_8"/>
<trip id="228" depart="253.33079999999998" fromJunction="4way_9" toJunction="4way_22"/>
<trip id="229" depart="254.4419" fromJunction="4way_22" toJunction="4way_20"/>
<trip id="230" depart="255.553" fromJunction="3way_12" toJunction="4way_28"/>
<trip id="231" depart="256.6641" fromJunction="3way_33" toJunction="3way_3"/>
<trip id="232" depart="257.7752" fromJunction="3way_18" toJunction="3way_11"/>
<trip id="233" depart="258.8863" fromJunction="4way_25" toJunction="3way_11"/>
<trip id="234" depart="259.99739999999997" fromJunction="4way_10" toJunction="3way_24"/>
<trip id="235" depart="261.1085" fromJunction="4way_13" toJunction="4way_22"/>
<trip id="236" depart="262.2196" fromJunction="4way_19" toJunction="3way_34"/>
<trip id="237" depart="263.3307" fromJunction="3way_18" toJunction="4way_10"/>
<trip id="238" depart="264.4418" fromJunction="3way_34" toJunction="4way_13"/>
<trip id="239" depart="265.5529" fromJunction="3way_24" toJunction="3way_12"/>
<trip id="240" depart="266.664" fromJunction="4way_7" toJunction="3way_29"/>
<trip id="241" depart="267.7751" fromJunction="3way_31" toJunction="3way_33"/>
<trip id="242" depart="268.8862" fromJunction="4way_9" toJunction="4way_7"/>
<trip id="243" depart="269.9973" fromJunction="4way_16" toJunction="3way_32"/>
<trip id="244" depart="271.1084" fromJunction="3way_2" toJunction="4way_27"/>
<trip id="245" depart="272.2195" fromJunction="3way_12" toJunction="3way_34"/>
<trip id="246" depart="273.3306" fromJunction="3way_31" toJunction="3way_4"/>
<trip id="247" depart="274.44169999999997" fromJunction="4way_14" toJunction="4way_26"/>
<trip id="248" depart="275.5528" fromJunction="4way_20" toJunction="4way_25"/>
<trip id="249" depart="276.6639" fromJunction="3way_32" toJunction="3way_23"/>
<trip id="250" depart="277.775" fromJunction="4way_10" toJunction="4way_14"/>
<trip id="251" depart="278.8861" fromJunction="3way_33" toJunction="4way_13"/>
<trip id="252" depart="279.9972" fromJunction="4way_20" toJunction="3way_1"/>
<trip id="253" depart="281.1083" fromJunction="3way_31" toJunction="3way_1"/>
<trip id="254" depart="282.2194" fromJunction="4way_16" toJunction="4way_7"/>
<trip id="255" depart="283.3305" fromJunction="3way_24" toJunction="3way_3"/>
<trip id="256" depart="284.4416" fromJunction="3way_32" toJunction="3way_1"/>
<trip id="257" depart="285.5527" fromJunction="3way_34" toJunction="4way_25"/>
<trip id="258" depart="286.6638" fromJunction="3way_4" toJunction="3way_23"/>
<trip id="259" depart="287.7749" fromJunction="4way_20" toJunction="4way_19"/>
<trip id="260" depart="288.88599999999997" fromJunction="4way_22" toJunction="4way_14"/>
<trip id="261" depart="289.9971" fromJunction="4way_8" toJunction="3way_1"/>
<trip id="262" depart="291.1082" fromJunction="4way_19" toJunction="4way_25"/>
<trip id="263" depart="292.2193" fromJunction="3way_1" toJunction="4way_22"/>
<trip id="264" depart="293.3304" fromJunction="4way_21" toJunction="4way_20"/>
<trip id="265" depart="294.4415" fromJunction="3way_32" toJunction="4way_7"/>
<trip id="266" depart="295.5526" fromJunction="3way_4" toJunction="4way_15"/>
<trip id="267" depart="296.6637" fromJunction="4way_7" toJunction="3way_12"/>
<trip id="268" depart="297.77479999999997" fromJunction="3way_3" toJunction="4way_20"/>
<trip id="269" depart="298.8859" fromJunction="3way_18" toJunction="3way_29"/>
<trip id="270" depart="299.997" fromJunction="4way_10" toJunction="4way_25"/>
<trip id="271" depart="301.1081" fromJunction="3way_11" toJunction="4way_25"/>
<trip id="272" depart="302.2192" fromJunction="4way_27" toJunction="4way_28"/>
<trip id="273" depart="303.33029999999997" fromJunction="4way_16" toJunction="4way_7"/>
<trip id="274" depart="304.4414" fromJunction="4way_16" toJunction="4way_13"/>
<trip id="275" depart="305.5525" fromJunction="4way_22" toJunction="4way_21"/>
<trip id="276" depart="306.6636" fromJunction="3way_2" toJunction="4way_16"/>
<trip id="277" depart="307.7747" fromJunction="3way_24" toJunction="3way_17"/>
<trip id="278" depart="308.8858" fromJunction="3way_33" toJunction="4way_22"/>
<trip id="279" depart="309.9969" fromJunction="4way_10" toJunction="3way_17"/>
<trip id="280" depart="311.108" fromJunction="4way_16" toJunction="3way_12"/>
<trip id="281" depart="312.21909999999997" fromJunction="4way_14" toJunction="3way_17"/>
<trip id="282" depart="313.3302" fromJunction="3way_3" toJunction="3way_12"/>
<trip id="283" depart="314.4413" fromJunction="3way_29" toJunction="4way_20"/>
<trip id="284" depart="315.5524" fromJunction="4way_16" toJunction="3way_2"/>
<trip id="285" depart="316.6635" fromJunction="4way_10" toJunction="4way_26"/>
<trip id="286" depart="317.7746" fromJunction="4way_7" toJunction="4way_14"/>
<trip id="287" depart="318.8857" fromJunction="4way_28" toJunction="3way_33"/>
<trip id="288" depart="319.9968" fromJunction="3way_6" toJunction="3way_31"/>
<trip id="289" depart="321.1079" fromJunction="4way_28" toJunction="3way_24"/>
<trip id="290" depart="322.219" fromJunction="3way_32" toJunction="3way_17"/>
<trip id="291" depart="323.3301" fromJunction="3way_3" toJunction="4way_14"/>
<trip id="292" depart="324.4412" fromJunction="3way_6" toJunction="4way_25"/>
<trip id="293" depart="325.5523" fromJunction="3way_29" toJunction="3way_33"/>
<trip id="294" depart="326.66339999999997" fromJunction="3way_31" toJunction="4way_7"/>
<trip id="295" depart="327.7745" fromJunction="3way_32" toJunction="3way_12"/>
<trip id="296" depart="328.8856" fromJunction="3way_11" toJunction="4way_28"/>
<trip id="297" depart="329.9967" fromJunction="3way_32" toJunction="3way_4"/>
<trip id="298" depart="331.1078" fromJunction="4way_14" toJunction="4way_19"/>
<trip id="299" depart="332.2189" fromJunction="4way_28" toJunction="3way_24"/>
<trip id="300" depart="333.33" fromJunction="4way_26" toJunction="3way_31"/>
<trip id="301" depart="334.4411" fromJunction="4way_21" toJunction="4way_8"/>
<trip id="302" depart="335.55219999999997" fromJunction="4way_10" toJunction="4way_28"/>
<trip id="303" depart="336.6633" fromJunction="4way_20" toJunction="4way_9"/>
<trip id="304" depart="337.7744" fromJunction="3way_11" toJunction="3way_32"/>
<trip id="305" depart="338.8855" fromJunction="3way_29" toJunction="3way_3"/>
<trip id="306" depart="339.9966" fromJunction="4way_7" toJunction="3way_18"/>
<trip id="307" depart="341.10769999999997" fromJunction="4way_22" toJunction="4way_9"/>
<trip id="308" depart="342.2188" fromJunction="4way_26" toJunction="4way_19"/>
<trip id="309" depart="343.3299" fromJunction="4way_16" toJunction="4way_27"/>
<trip id="310" depart="344.441" fromJunction="3way_24" toJunction="4way_28"/>
<trip id="311" depart="345.5521" fromJunction="3way_11" toJunction="3way_24"/>
<trip id="312" depart="346.6632" fromJunction="3way_4" toJunction="4way_27"/>
<trip id="313" depart="347.7743" fromJunction="4way_19" toJunction="3way_6"/>
<trip id="314" depart="348.8854" fromJunction="3way_17" toJunction="3way_29"/>
<trip id="315" depart="349.99649999999997" fromJunction="3way_2" toJunction="4way_27"/>
<trip id="316" depart="351.1076" fromJunction="3way_4" toJunction="3way_6"/>
<trip id="317" depart="352.2187" fromJunction="4way_28" toJunction="3way_12"/>
<trip id="318" depart="353.3298" fromJunction="4way_27" toJunction="3way_18"/>
<trip id="319" depart="354.4409" fromJunction="3way_34" toJunction="3way_4"/>
<trip id="320" depart="355.552" fromJunction="3way_31" toJunction="4way_14"/>
<trip id="321" depart="356.6631" fromJunction="4way_8" toJunction="4way_20"/>
<trip id="322" depart="357.7742" fromJunction="3way_18" toJunction="3way_24"/>
<trip id="323" depart="358.8853" fromJunction="3way_3" toJunction="4way_25"/>
<trip id="324" depart="359.9964" fromJunction="4way_8" toJunction="4way_21"/>
<trip id="325" depart="361.1075" fromJunction="4way_13" toJunction="4way_26"/>
<trip id="326" depart="362.2186" fromJunction="3way_24" toJunction="3way_4"/>
<trip id="327" depart="363.3297" fromJunction="3way_32" toJunction="3way_24"/>
<trip id="328" depart="364.44079999999997" fromJunction="4way_26" toJunction="3way_1"/>
<trip id="329" depart="365.5519" fromJunction="4way_25" toJunction="3way_4"/>
<trip id="330" depart="366.663" fromJunction="4way_8" toJunction="4way_20"/>
<trip id="331" depart="367.7741" fromJunction="3way_4" toJunction="4way_22"/>
<trip id="332" depart="368.8852" fromJunction="3way_1" toJunction="4way_27"/>
<trip id="333" depart="369.9963" fromJunction="3way_24" toJunction="4way_13"/>
<trip id="334" depart="371.1074" fromJunction="3way_31" toJunction="4way_7"/>
<trip id="335" depart="372.2185" fromJunction="3way_1" toJunction="3way_23"/>
<trip id="336" depart="373.32959999999997" fromJunction="4way_21" toJunction="4way_7"/>
<trip id="337" depart="374.4407" fromJunction="3way_29" toJunction="3way_31"/>
<trip id="338" depart="375.5518" fromJunction="3way_4" toJunction="3way_29"/>
<trip id="339" depart="376.6629" fromJunction="3way_3" toJunction="3way_34"/>
<trip id="340" depart="377.774" fromJunction="4way_27" toJunction="3way_3"/>
<trip id="341" depart="378.88509999999997" fromJunction="4way_13" toJunction="3way_17"/>
<trip id="342" depart="379.9962" fromJunction="3way_12" toJunction="4way_9"/>
<trip id="343" depart="381.1073" fromJunction="3way_23" toJunction="3way_11"/>
<trip id="344" depart="382.2184" fromJunction="4way_7" toJunction="3way_18"/>
<trip id="345" depart="383.3295" fromJunction="4way_15" toJunction="3way_31"/>
<trip id="346" depart="384.4406" fromJunction="4way_16" toJunction="4way_9"/>
<trip id="347" depart="385.5517" fromJunction="4way_10" toJunction="3way_1"/>
<trip id="348" depart="386.6628" fromJunction="4way_10" toJunction="3way_24"/>
<trip id="349" depart="387.77389999999997" fromJunction="4way_28" toJunction="4way_20"/>
<trip id="350" depart="388.885" fromJunction="3way_31" toJunction="4way_9"/>
<trip id="351" depart="389.9961" fromJunction="3way_24" toJunction="4way_7"/>
<trip id="352" depart="391.1072" fromJunction="3way_34" toJunction="3way_31"/>
<trip id="353" depart="392.2183" fromJunction="4way_14" toJunction="3way_6"/>
<trip id="354" depart="393.32939999999996" fromJunction="4way_7" toJunction="3way_34"/>
<trip id="355" depart="394.4405" fromJunction="3way_17" toJunction="3way_4"/>
<trip id="356" depart="395.5516" fromJunction="4way_28" toJunction="3way_2"/>
<trip id="357" depart="396.6627" fromJunction="3way_17" toJunction="3way_1"/>
<trip id="358" depart="397.7738" fromJunction="3way_3" toJunction="4way_25"/>
<trip id="359" depart="398.8849" fromJunction="4way_26" toJunction="4way_10"/>
<trip id="360" depart="399.996" fromJunction="4way_7" toJunction="4way_22"/>
<trip id="361" depart="401.1071" fromJunction="4way_13" toJunction="3way_33"/>
<trip id="362" depart="402.21819999999997" fromJunction="4way_7" toJunction="4way_16"/>
<trip id="363" depart="403.3293" fromJunction="4way_10" toJunction="3way_34"/>
<trip id="364" depart="404.4404" fromJunction="3way_1" toJunction="3way_31"/>
<trip id="365" depart="405.5515" fromJunction="3way_32" toJunction="3way_29"/>
<trip id="366" depart="406.6626" fromJunction="3way_12" toJunction="4way_27"/>
<trip id="367" depart="407.7737" fromJunction="3way_32" toJunction="3way_12"/>
<trip id="368" depart="408.8848" fromJunction="4way_22" toJunction="4way_10"/>
<trip id="369" depart="409.9959" fromJunction="3way_24" toJunction="4way_28"/>
<trip id="370" depart="411.10699999999997" fromJunction="4way_15" toJunction="4way_22"/>
<trip id="371" depart="412.2181" fromJunction="3way_29" toJunction="4way_14"/>
<trip id="372" depart="413.3292" fromJunction="3way_17" toJunction="3way_23"/>
<trip id="373" depart="414.4403" fromJunction="3way_33" toJunction="4way_16"/>
<trip id="374" depart="415.5514" fromJunction="3way_6" toJunction="3way_12"/>
<trip id="375" depart="416.66249999999997" fromJunction="4way_27" toJunction="4way_9"/>