<routes xmlns:xsi="http://www.w3.org/2001/XMLSchema-instance" xsi:noNamespaceSchemaLocation="http://sumo.dlr.de/xsd/routes_file.xsd">
<trip id="0" depart="0.0" fromJunction="4way_24" toJunction="4way_36"/>
<trip id="1" depart="0.3361" fromJunction="4way_36" toJunction="4way_23"/>
<trip id="2" depart="0.6722" fromJunction="4way_37" toJunction="3way_7"/>
<trip id="3" depart="1.0083" fromJunction="4way_12" toJunction="3way_7"/>
<trip id="4" depart="1.3444" fromJunction="3way_21" toJunction="4way_33"/>
<trip id="5" depart="1.6805" fromJunction="4way_29" toJunction="4way_11"/>
<trip id="6" depart="2.0166" fromJunction="4way_19" toJunction="4way_9"/>
<trip id="7" depart="2.3527" fromJunction="4way_25" toJunction="3way_1"/>
<trip id="8" depart="2.6888" fromJunction="4way_39" toJunction="4way_11"/>
<trip id="9" depart="3.0249" fromJunction="4way_11" toJunction="4way_40"/>
<trip id="10" depart="3.361" fromJunction="4way_11" toJunction="4way_8"/>
<trip id="11" depart="3.6971000000000003" fromJunction="4way_30" toJunction="3way_13"/>
<trip id="12" depart="4.0332" fromJunction="4way_26" toJunction="3way_20"/>
<trip id="13" depart="4.3693" fromJunction="3way_14" toJunction="4way_29"/>
<trip id="14" depart="4.7054" fromJunction="4way_38" toJunction="3way_46"/>
<trip id="15" depart="5.0415" fromJunction="4way_9" toJunction="4way_8"/>
<trip id="16" depart="5.3776" fromJunction="4way_23" toJunction="3way_1"/>
<trip id="17" depart="5.7137" fromJunction="4way_10" toJunction="4way_26"/>
<trip id="18" depart="6.0498" fromJunction="3way_7" toJunction="3way_28"/>
<trip id="19" depart="6.3859" fromJunction="3way_3" toJunction="4way_17"/>
<trip id="20" depart="6.722" fromJunction="3way_13" toJunction="3way_41"/>
<trip id="21" depart="7.0581000000000005" fromJunction="3way_28" toJunction="3way_43"/>
<trip id="22" depart="7.3942000000000005" fromJunction="3way_7" toJunction="4way_9"/>
<trip id="23" depart="7.730300000000001" fromJunction="3way_5" toJunction="4way_40"/>
<trip id="24" depart="8.0664" fromJunction="3way_27" toJunction="3way_41"/>
<trip id="25" depart="8.4025" fromJunction="3way_46" toJunction="4way_37"/>
<trip id="26" depart="8.7386" fromJunction="3way_47" toJunction="4way_8"/>
<trip id="27" depart="9.0747" fromJunction="3way_5" toJunction="3way_27"/>
<trip id="28" depart="9.4108" fromJunction="3way_20" toJunction="4way_37"/>
<trip id="29" depart="9.7469" fromJunction="3way_28" toJunction="3way_34"/>
<trip id="30" depart="10.083" fromJunction="3way_5" toJunction="4way_18"/>
<trip id="31" depart="10.4191" fromJunction="3way_5" toJunction="4way_25"/>
<trip id="32" depart="10.7552" fromJunction="4way_15" toJunction="4way_33"/>
<trip id="33" depart="11.0913" fromJunction="4way_23" toJunction="4way_33"/>
<trip id="34" depart="11.4274" fromJunction="3way_2" toJunction="4way_31"/>
<trip id="35" depart="11.7635" fromJunction="3way_13" toJunction="3way_45"/>
<trip id="36" depart="12.0996" fromJunction="3way_13" toJunction="3way_44"/>
<trip id="37" depart="12.4357" fromJunction="3way_14" toJunction="3way_43"/>
<trip id="38" depart="12.7718" fromJunction="4way_17" toJunction="3way_3"/>
<trip id="39" depart="13.1079" fromJunction="3way_46" toJunction="4way_9"/>
<trip id="40" depart="13.444" fromJunction="3way_5" toJunction="4way_29"/>
<trip id="41" depart="13.780100000000001" fromJunction="4way_19" toJunction="4way_9"/>
<trip id="42" depart="14.116200000000001" fromJunction="4way_10" toJunction="3way_43"/>
<trip id="43" depart="14.452300000000001" fromJunction="4way_24" toJunction="3way_13"/>
<trip id="44" depart="14.788400000000001" fromJunction="3way_34" toJunction="3way_44"/>
<trip id="45" depart="15.124500000000001" fromJunction="3way_1" toJunction="4way_16"/>
<trip id="46" depart="15.460600000000001" fromJunction="3way_1" toJunction="4way_25"/>
<trip id="47" depart="15.796700000000001" fromJunction="3way_45" toJunction="4way_10"/>
<trip id="48" depart="16.1328" fromJunction="4way_33" toJunction="4way_31"/>
<trip id="49" depart="16.4689" fromJunction="4way_9" toJunction="3way_46"/>
<trip id="50" depart="16.805" fromJunction="4way_9" toJunction="4way_16"/>
<trip id="51" depart="17.1411" fromJunction="4way_26" toJunction="3way_47"/>
<trip id="52" depart="17.4772" fromJunction="4way_32" toJunction="4way_8"/>
<trip id="53" depart="17.8133" fromJunction="3way_44" toJunction="4way_17"/>
<trip id="54" depart="18.1494" fromJunction="3way_21" toJunction="4way_18"/>
<trip id="55" depart="18.485500000000002" fromJunction="4way_16" toJunction="4way_39"/>
<trip id="56" depart="18.8216" fromJunction="4way_17" toJunction="4way_39"/>
<trip id="57" depart="19.157700000000002" fromJunction="4way_22" toJunction="4way_24"/>
<trip id="58" depart="19.4938" fromJunction="4way_30" toJunction="4way_33"/>
<trip id="59" depart="19.829900000000002" fromJunction="4way_23" toJunction="3way_7"/>
<trip id="60" depart="20.166" fromJunction="3way_44" toJunction="3way_1"/>
<trip id="61" depart="20.502100000000002" fromJunction="3way_44" toJunction="4way_37"/>
<trip id="62" depart="20.8382" fromJunction="3way_7" toJunction="4way_23"/>
<trip id="63" depart="21.174300000000002" fromJunction="3way_44" toJunction="3way_20"/>
<trip id="64" depart="21.5104" fromJunction="4way_16" toJunction="4way_9"/>
<trip id="65" depart="21.8465" fromJunction="4way_37" toJunction="4way_9"/>
<trip id="66" depart="22.1826" fromJunction="3way_7" toJunction="4way_37"/>
<trip id="67" depart="22.5187" fromJunction="3way_28" toJunction="4way_12"/>
<trip id="68" depart="22.8548" fromJunction="4way_12" toJunction="3way_7"/>
<trip id="69" depart="23.1909" fromJunction="4way_17" toJunction="4way_18"/>
<trip id="70" depart="23.527" fromJunction="4way_19" toJunction="3way_5"/>
<trip id="71" depart="23.8631" fromJunction="4way_40" toJunction="4way_24"/>
<trip id="72" depart="24.1992" fromJunction="4way_39" toJunction="3way_20"/>
<trip id="73" depart="24.5353" fromJunction="4way_23" toJunction="3way_27"/>
<trip id="74" depart="24.8714" fromJunction="4way_32" toJunction="3way_13"/>
<trip id="75" depart="25.2075" fromJunction="4way_9" toJunction="4way_18"/>
<trip id="76" depart="25.5436" fromJunction="3way_4" toJunction="3way_14"/>
<trip id="77" depart="25.8797" fromJunction="4way_8" toJunction="4way_17"/>
<trip id="78" depart="26.2158" fromJunction="4way_32" toJunction="4way_24"/>
<trip id="79" depart="26.5519" fromJunction="4way_32" toJunction="4way_33"/>
<trip id="80" depart="26.888" fromJunction="3way_28" toJunction="3way_1"/>
<trip id="81" depart="27.2241" fromJunction="3way_27" toJunction="4way_24"/>
<trip id="82" depart="27.560200000000002" fromJunction="3way_3" toJunction="4way_29"/>
<trip id="83" depart="27.8963" fromJunction="3way_1" toJunction="3way_34"/>
<trip id="84" depart="28.232400000000002" fromJunction="3way_47" toJunction="4way_11"/>
<trip id="85" depart="28.5685" fromJunction="4way_19" toJunction="3way_35"/>
<trip id="86" depart="28.904600000000002" fromJunction="3way_2" toJunction="4way_17"/>
<trip id="87" depart="29.2407" fromJunction="4way_23" toJunction="3way_27"/>
<trip id="88" depart="29.576800000000002" fromJunction="3way_47" toJunction="4way_9"/>
<trip id="89" depart="29.9129" fromJunction="4way_23" toJunction="4way_26"/>
<trip id="90" depart="30.249000000000002" fromJunction="4way_16" toJunction="4way_36"/>
<trip id="91" depart="30.5851" fromJunction="3way_43" toJunction="4way_24"/>
<trip id="92" depart="30.921200000000002" fromJunction="3way_41" toJunction="3way_21"/>
<trip id="93" depart="31.2573" fromJunction="4way_26" toJunction="3way_34"/>
<trip id="94" depart="31.593400000000003" fromJunction="4way_22" toJunction="4way_31"/>
<trip id="95" depart="31.9295" fromJunction="3way_46" toJunction="3way_47"/>
<trip id="96" depart="32.2656" fromJunction="3way_7" toJunction="3way_3"/>
<trip id="97" depart="32.6017" fromJunction="4way_17" toJunction="3way_43"/>
<trip id="98" depart="32.9378" fromJunction="3way_34" toJunction="3way_28"/>
<trip id="99" depart="33.2739" fromJunction="3way_4" toJunction="3way_2"/>
<trip id="100" depart="33.61" fromJunction="4way_8" toJunction="4way_10"/>
<trip id="101" depart="33.9461" fromJunction="4way_12" toJunction="4way_36"/>
<trip id="102" depart="34.2822" fromJunction="3way_41" toJunction="4way_40"/>
<trip id="103" depart="34.6183" fromJunction="3way_46" toJunction="4way_37"/>
<trip id="104" depart="34.9544" fromJunction="4way_38" toJunction="3way_1"/>
<trip id="105" depart="35.2905" fromJunction="3way_21" toJunction="3way_43"/>
<trip id="106" depart="35.6266" fromJunction="4way_25" toJunction="4way_16"/>
<trip id="107" depart="35.9627" fromJunction="4way_39" toJunction="4way_30"/>
<trip id="108" depart="36.2988" fromJunction="4way_11" toJunction="3way_45"/>
<trip id="109" depart="36.6349" fromJunction="4way_26" toJunction="3way_34"/>
<trip id="110" depart="36.971000000000004" fromJunction="3way_41" toJunction="4way_10"/>
<trip id="111" depart="37.3071" fromJunction="4way_24" toJunction="4way_26"/>
<trip id="112" depart="37.6432" fromJunction="3way_41" toJunction="3way_46"/>
<trip id="113" depart="37.9793" fromJunction="3way_2" toJunction="4way_29"/>
<trip id="114" depart="38.315400000000004" fromJunction="3way_7" toJunction="3way_41"/>
<trip id="115" depart="38.6515" fromJunction="4way_8" toJunction="3way_28"/>
<trip id="116" depart="38.9876" fromJunction="4way_16" toJunction="3way_45"/>
<trip id="117" depart="39.3237" fromJunction="3way_13" toJunction="4way_32"/>
<trip id="118" depart="39.659800000000004" fromJunction="3way_13" toJunction="4way_29"/>
<trip id="119" depart="39.9959" fromJunction="3way_21" toJunction="4way_24"/>
<trip id="120" depart="40.332" fromJunction="3way_34" toJunction="4way_9"/>
<trip id="121" depart="40.6681" fromJunction="4way_15" toJunction="3way_20"/>
<trip id="122" depart="41.004200000000004" fromJunction="4way_26" toJunction="3way_28"/>
<trip id="123" depart="41.3403" fromJunction="4way_31" toJunction="4way_38"/>
<trip id="124" depart="41.6764" fromJunction="3way_4" toJunction="4way_12"/>
<trip id="125" depart="42.0125" fromJunction="4way_16" toJunction="4way_36"/>
<trip id="126" depart="42.348600000000005" fromJunction="3way_44" toJunction="4way_33"/>
<trip id="127" depart="42.6847" fromJunction="3way_5" toJunction="3way_47"/>
<trip id="128" depart="43.0208" fromJunction="4way_19" toJunction="3way_1"/>
<trip id="129" depart="43.3569" fromJunction="4way_11" toJunction="4way_10"/>
<trip id="130" depart="43.693" fromJunction="4way_16" toJunction="3way_45"/>
<trip id="131" depart="44.0291" fromJunction="4way_15" toJunction="3way_3"/>
<trip id="132" depart="44.3652" fromJunction="4way_39" toJunction="4way_33"/>
<trip id="133" depart="44.7013" fromJunction="4way_33" toJunction="3way_35"/>
<trip id="134" depart="45.0374" fromJunction="4way_26" toJunction="3way_47"/>
<trip id="135" depart="45.3735" fromJunction="4way_11" toJunction="4way_26"/>
<trip id="136" depart="45.7096" fromJunction="4way_39" toJunction="4way_30"/>
<trip id="137" depart="46.045700000000004" fromJunction="4way_32" toJunction="3way_44"/>
<trip id="138" depart="46.3818" fromJunction="3way_1" toJunction="4way_23"/>
<trip id="139" depart="46.7179" fromJunction="3way_20" toJunction="3way_35"/>
<trip id="140" depart="47.054" fromJunction="4way_15" toJunction="4way_40"/>
<trip id="141" depart="47.390100000000004" fromJunction="4way_30" toJunction="4way_22"/>
<trip id="142" depart="47.7262" fromJunction="3way_20" toJunction="3way_28"/>
<trip id="143" depart="48.0623" fromJunction="3way_34" toJunction="4way_18"/>
<trip id="144" depart="48.3984" fromJunction="3way_47" toJunction="4way_29"/>
<trip id="145" depart="48.734500000000004" fromJunction="4way_32" toJunction="3way_5"/>
<trip id="146" depart="49.0706" fromJunction="4way_38" toJunction="4way_12"/>
<trip id="147" depart="49.4067" fromJunction="3way_4" toJunction="3way_43"/>
<trip id="148" depart="49.7428" fromJunction="3way_47" toJunction="3way_14"/>
<trip id="149" depart="50.078900000000004" fromJunction="3way_3" toJunction="3way_13"/>
<trip id="150" depart="50.415" fromJunction="3way_1" toJunction="4way_24"/>
<trip id="151" depart="50.7511" fromJunction="3way_20" toJunction="4way_38"/>
<trip id="152" depart="51.0872" fromJunction="3way_5" toJunction="3way_4"/>
<trip id="153" depart="51.423300000000005" fromJunction="3way_46" toJunction="4way_10"/>
<trip id="154" depart="51.7594" fromJunction="4way_9" toJunction="3way_14"/>
<trip id="155" depart="52.0955" fromJunction="4way_24" toJunction="4way_32"/>
<trip id="156" depart="52.4316" fromJunction="3way_13" toJunction="3way_45"/>
<trip id="157" depart="52.767700000000005" fromJunction="3way_44" toJunction="3way_3"/>
<trip id="158" depart="53.1038" fromJunction="4way_8" toJunction="3way_46"/>
<trip id="159" depart="53.4399" fromJunction="4way_17" toJunction="4way_10"/>
<trip id="160" depart="53.776" fromJunction="3way_21" toJunction="3way_45"/>
<trip id="161" depart="54.1121" fromJunction="4way_11" toJunction="3way_34"/>
<trip id="162" depart="54.4482" fromJunction="4way_17" toJunction="3way_3"/>
<trip id="163" depart="54.7843" fromJunction="4way_38" toJunction="4way_11"/>
<trip id="164" depart="55.120400000000004" fromJunction="3way_28" toJunction="3way_46"/>
<trip id="165" depart="55.4565" fromJunction="3way_45" toJunction="4way_16"/>
<trip id="166" depart="55.7926" fromJunction="3way_34" toJunction="3way_28"/>
<trip id="167" depart="56.1287" fromJunction="3way_3" toJunction="4way_8"/>
<trip id="168" depart="56.464800000000004" fromJunction="3way_4" toJunction="4way_11"/>
<trip id="169" depart="56.8009" fromJunction="3way_44" toJunction="4way_29"/>
<trip id="170" depart="57.137" fromJunction="4way_33" toJunction="4way_9"/>
<trip id="171" depart="57.4731" fromJunction="3way_2" toJunction="4way_37"/>
<trip id="172" depart="57.809200000000004" fromJunction="4way_22" toJunction="3way_7"/>
<trip id="173" depart="58.1453" fromJunction="4way_10" toJunction="4way_36"/>
<trip id="174" depart="58.4814" fromJunction="3way_13" toJunction="3way_45"/>
<trip id="175" depart="58.8175" fromJunction="4way_33" toJunction="3way_21"/>
<trip id="176" depart="59.153600000000004" fromJunction="4way_12" toJunction="3way_34"/>
<trip id="177" depart="59.4897" fromJunction="4way_8" toJunction="4way_36"/>
<trip id="178" depart="59.8258" fromJunction="4way_8" toJunction="4way_39"/>
<trip id="179" depart="60.1619" fromJunction="3way_21" toJunction="4way_24"/>
<trip id="180" depart="60.498000000000005" fromJunction="4way_17" toJunction="4way_12"/>
<trip id="181" depart="60.8341" fromJunction="3way_43" toJunction="4way_17"/>
<trip id="182" depart="61.1702" fromJunction="4way_30" toJunction="4way_38"/>
<trip id="183" depart="61.5063" fromJunction="3way_27" toJunction="3way_47"/>
<trip id="184" depart="61.842400000000005" fromJunction="4way_33" toJunction="4way_11"/>
<trip id="185" depart="62.1785" fromJunction="4way_16" toJunction="4way_8"/>
<trip id="186" depart="62.5146" fromJunction="4way_8" toJunction="4way_32"/>
<trip id="187" depart="62.8507" fromJunction="4way_9" toJunction="4way_26"/>
<trip id="188" depart="63.186800000000005" fromJunction="4way_12" toJunction="4way_18"/>
<trip id="189" depart="63.5229" fromJunction="3way_27" toJunction="4way_18"/>
<trip id="190" depart="63.859" fromJunction="3way_21" toJunction="4way_30"/>
<trip id="191" depart="64.1951" fromJunction="3way_7" toJunction="3way_3"/>
<trip id="192" depart="64.5312" fromJunction="4way_32" toJunction="3way_46"/>
<trip id="193" depart="64.8673" fromJunction="4way_33" toJunction="3way_2"/>
<trip id="194" depart="65.2034" fromJunction="3way_28" toJunction="3way_35"/>
<trip id="195" depart="65.5395" fromJunction="3way_34" toJunction="3way_1"/>
<trip id="196" depart="65.8756" fromJunction="4way_19" toJunction="3way_14"/>
<trip id="197" depart="66.21170000000001" fromJunction="4way_26" toJunction="3way_5"/>
<trip id="198" depart="66.5478" fromJunction="4way_8" toJunction="4way_39"/>
<trip id="199" depart="66.8839" fromJunction="3way_47" toJunction="3way_43"/>
<trip id="200" depart="67.22" fromJunction="3way_2" toJunction="4way_23"/>
<trip id="201" depart="67.5561" fromJunction="3way_7" toJunction="3way_1"/>
<trip id="202" depart="67.8922" fromJunction="3way_46" toJunction="3way_4"/>
<trip id="203" depart="68.2283" fromJunction="3way_46" toJunction="3way_41"/>
<trip id="204" depart="68.5644" fromJunction="3way_1" toJunction="3way_13"/>
<trip id="205" depart="68.90050000000001" fromJunction="4way_23" toJunction="3way_13"/>
<trip id="206" depart="69.2366" fromJunction="4way_40" toJunction="4way_33"/>
<trip id="207" depart="69.5727" fromJunction="3way_27" toJunction="3way_14"/>
<trip id="208" depart="69.9088" fromJunction="4way_22" toJunction="4way_30"/>
<trip id="209" depart="70.2449" fromJunction="3way_3" toJunction="4way_40"/>
<trip id="210" depart="70.581" fromJunction="3way_45" toJunction="4way_11"/>
<trip id="211" depart="70.9171" fromJunction="4way_37" toJunction="3way_47"/>
<trip id="212" depart="71.2532" fromJunction="4way_37" toJunction="3way_46"/>
<trip id="213" depart="71.58930000000001" fromJunction="3way_7" toJunction="4way_29"/>
<trip id="214" depart="71.9254" fromJunction="3way_45" toJunction="4way_36"/>
<trip id="215" depart="72.2615" fromJunction="3way_14" toJunction="4way_17"/>
<trip id="216" depart="72.5976" fromJunction="4way_25" toJunction="3way_28"/>
<trip id="217" depart="72.9337" fromJunction="3way_3" toJunction="4way_19"/>
<trip id="218" depart="73.2698" fromJunction="3way_35" toJunction="3way_47"/>
<trip id="219" depart="73.6059" fromJunction="4way_40" toJunction="4way_18"/>
<trip id="220" depart="73.94200000000001" fromJunction="4way_12" toJunction="4way_33"/>
<trip id="221" depart="74.27810000000001" fromJunction="4way_40" toJunction="3way_44"/>
<trip id="222" depart="74.6142" fromJunction="3way_5" toJunction="3way_46"/>
<trip id="223" depart="74.9503" fromJunction="3way_47" toJunction="4way_26"/>
<trip id="224" depart="75.2864" fromJunction="3way_3" toJunction="4way_17"/>
<trip id="225" depart="75.6225" fromJunction="4way_39" toJunction="4way_24"/>
<trip id="226" depart="75.9586" fromJunction="3way_21" toJunction="3way_45"/>
<trip id="227" depart="76.2947" fromJunction="4way_31" toJunction="3way_28"/>
<trip id="228" depart="76.63080000000001" fromJunction="3way_27" toJunction="3way_47"/>
<trip id="229" depart="76.9669" fromJunction="3way_44" toJunction="4way_8"/>
<trip id="230" depart="77.303" fromJunction="3way_47" toJunction="4way_25"/>
<trip id="231" depart="77.6391" fromJunction="4way_26" toJunction="4way_22"/>
<trip id="232" depart="77.9752" fromJunction="4way_39" toJunction="4way_30"/>
<trip id="233" depart="78.3113" fromJunction="4way_31" toJunction="4way_26"/>
<trip id="234" depart="78.6474" fromJunction="4way_33" toJunction="4way_17"/>
<trip id="235" depart="78.9835" fromJunction="4way_8" toJunction="4way_40"/>
<trip id="236" depart="79.31960000000001" fromJunction="3way_44" toJunction="3way_4"/>
<trip id="237" depart="79.6557" fromJunction="3way_14" toJunction="3way_20"/>
<trip id="238" depart="79.9918" fromJunction="4way_23" toJunction="3way_13"/>
<trip id="239" depart="80.3279" fromJunction="4way_12" toJunction="3way_21"/>
<trip id="240" depart="80.664" fromJunction="4way_36" toJunction="4way_33"/>
<trip id="241" depart="81.0001" fromJunction="4way_16" toJunction="3way_45"/>
<trip id="242" depart="81.3362" fromJunction="3way_14" toJunction="4way_12"/>
<trip id="243" depart="81.6723" fromJunction="3way_45" toJunction="4way_36"/>
<trip id="244" depart="82.00840000000001" fromJunction="3way_14" toJunction="4way_8"/>
<trip id="245" depart="82.3445" fromJunction="4way_22" toJunction="3way_46"/>
<trip id="246" depart="82.6806" fromJunction="3way_28" toJunction="3way_44"/>
<trip id="247" depart="83.0167" fromJunction="4way_31" toJunction="4way_29"/>
<trip id="248" depart="83.3528" fromJunction="4way_19" toJunction="3way_35"/>
<trip id="249" depart="83.6889" fromJunction="3way_3" toJunction="4way_32"/>
<trip id="250" depart="84.025" fromJunction="4way_8" toJunction="3way_46"/>
<trip id="251" depart="84.36110000000001" fromJunction="3way_35" toJunction="3way_5"/>
<trip id="252" depart="84.69720000000001" fromJunction="4way_10" toJunction="4way_31"/>
<trip id="253" depart="85.0333" fromJunction="4way_17" toJunction="4way_30"/>
<trip id="254" depart="85.3694" fromJunction="3way_35" toJunction="3way_41"/>
<trip id="255" depart="85.7055" fromJunction="4way_39" toJunction="4way_10"/>
<trip id="256" depart="86.0416" fromJunction="3way_45" toJunction="4way_36"/>
<trip id="257" depart="86.3777" fromJunction="4way_17" toJunction="3way_2"/>
<trip id="258" depart="86.7138" fromJunction="3way_28" toJunction="3way_1"/>
<trip id="259" depart="87.04990000000001" fromJunction="4way_19" toJunction="4way_29"/>
<trip id="260" depart="87.386" fromJunction="3way_14" toJunction="3way_5"/>
<trip id="261" depart="87.7221" fromJunction="3way_35" toJunction="3way_2"/>
<trip id="262" depart="88.0582" fromJunction="3way_45" toJunction="4way_30"/>
<trip id="263" depart="88.3943" fromJunction="3way_13" toJunction="3way_41"/>
<trip id="264" depart="88.7304" fromJunction="4way_17" toJunction="4way_9"/>
<trip id="265" depart="89.0665" fromJunction="4way_26" toJunction="4way_10"/>
<trip id="266" depart="89.4026" fromJunction="4way_37" toJunction="3way_1"/>
<trip id="267" depart="89.73870000000001" fromJunction="4way_16" toJunction="4way_23"/>
<trip id="268" depart="90.0748" fromJunction="3way_1" toJunction="4way_33"/>
<trip id="269" depart="90.4109" fromJunction="4way_18" toJunction="4way_17"/>
<trip id="270" depart="90.747" fromJunction="3way_35" toJunction="4way_22"/>
<trip id="271" depart="91.0831" fromJunction="3way_5" toJunction="4way_11"/>
<trip id="272" depart="91.4192" fromJunction="4way_29" toJunction="3way_7"/>
<trip id="273" depart="91.7553" fromJunction="3way_5" toJunction="4way_17"/>
<trip id="274" depart="92.09140000000001" fromJunction="3way_14" toJunction="3way_47"/>
<trip id="275" depart="92.42750000000001" fromJunction="4way_39" toJunction="4way_30"/>
<trip id="276" depart="92.7636" fromJunction="3way_20" toJunction="4way_23"/>
<trip id="277" depart="93.0997" fromJunction="4way_39" toJunction="4way_40"/>
<trip id="278" depart="93.4358" fromJunction="4way_19" toJunction="4way_22"/>
<trip id="279" depart="93.7719" fromJunction="4way_19" toJunction="4way_36"/>
<trip id="280" depart="94.108" fromJunction="4way_33" toJunction="4way_25"/>
<trip id="281" depart="94.4441" fromJunction="3way_2" toJunction="4way_19"/>
<trip id="282" depart="94.78020000000001" fromJunction="3way_21" toJunction="3way_27"/>
<trip id="283" depart="95.11630000000001" fromJunction="3way_44" toJunction="4way_26"/>
<trip id="284" depart="95.4524" fromJunction="4way_39" toJunction="3way_27"/>
<trip id="285" depart="95.7885" fromJunction="4way_12" toJunction="4way_8"/>
<trip id="286" depart="96.1246" fromJunction="4way_37" toJunction="3way_27"/>
<trip id="287" depart="96.4607" fromJunction="3way_4" toJunction="3way_7"/>
<trip id="288" depart="96.7968" fromJunction="3way_46" toJunction="4way_17"/>
<trip id="289" depart="97.1329" fromJunction="3way_3" toJunction="3way_2"/>
<trip id="290" depart="97.46900000000001" fromJunction="4way_12" toJunction="3way_3"/>
<trip id="291" depart="97.8051" fromJunction="4way_12" toJunction="4way_31"/>
<trip id="292" depart="98.1412" fromJunction="4way_29" toJunction="4way_10"/>
<trip id="293" depart="98.4773" fromJunction="4way_40" toJunction="3way_44"/>
<trip id="294" depart="98.8134" fromJunction="4way_15" toJunction="3way_28"/>
<trip id="295" depart="99.1495" fromJunction="4way_40" toJunction="3way_21"/>
<trip id="296" depart="99.4856" fromJunction="3way_43" toJunction="3way_27"/>
<trip id="297" depart="99.8217" fromJunction="3way_3" toJunction="4way_10"/>
<trip id="298" depart="100.15780000000001" fromJunction="4way_15" toJunction="4way_23"/>
<trip id="299" depart="100.4939" fromJunction="3way_47" toJunction="3way_45"/>
<trip id="300" depart="100.83" fromJunction="3way_28" toJunction="4way_29"/>
<trip id="301" depart="101.1661" fromJunction="3way_35" toJunction="4way_8"/>
<trip id="302" depart="101.5022" fromJunction="3way_20" toJunction="4way_33"/>
<trip id="303" depart="101.8383" fromJunction="3way_35" toJunction="3way_5"/>
<trip id="304" depart="102.1744" fromJunction="4way_37" toJunction="4way_16"/>
<trip id="305" depart="102.51050000000001" fromJunction="4way_40" toJunction="3way_21"/>
<trip id="306" depart="102.84660000000001" fromJunction="4way_24" toJunction="3way_35"/>
<trip id="307" depart="103.1827" fromJunction="4way_18" toJunction="4way_30"/>
<trip id="308" depart="103.5188" fromJunction="4way_12" toJunction="4way_33"/>
<trip id="309" depart="103.8549" fromJunction="4way_17" toJunction="4way_38"/>
<trip id="310" depart="104.191" fromJunction="3way_20" toJunction="3way_35"/>
<trip id="311" depart="104.5271" fromJunction="3way_47" toJunction="3way_3"/>
<trip id="312" depart="104.8632" fromJunction="4way_29" toJunction="3way_7"/>
<trip id="313" depart="105.19930000000001" fromJunction="4way_33" toJunction="4way_38"/>
<trip id="314" depart="105.53540000000001" fromJunction="3way_5" toJunction="3way_13"/>
<trip id="315" depart="105.8715" fromJunction="4way_31" toJunction="4way_16"/>
<trip id="316" depart="106.2076" fromJunction="4way_26" toJunction="4way_32"/>
<trip id="317" depart="106.5437" fromJunction="3way_21" toJunction="4way_40"/>
<trip id="318" depart="106.8798" fromJunction="3way_20" toJunction="3way_21"/>
<trip id="319" depart="107.2159" fromJunction="4way_37" toJunction="4way_10"/>
<trip id="320" depart="107.552" fromJunction="3way_5" toJunction="4way_32"/>
<trip id="321" depart="107.88810000000001" fromJunction="4way_16" toJunction="4way_22"/>
<trip id="322" depart="108.2242" fromJunction="3way_27" toJunction="3way_47"/>
<trip id="323" depart="108.5603" fromJunction="3way_3" toJunction="4way_32"/>
<trip id="324" depart="108.8964" fromJunction="3way_13" toJunction="4way_15"/>
<trip id="325" depart="109.2325" fromJunction="4way_40" toJunction="4way_8"/>
<trip id="326" depart="109.5686" fromJunction="4way_32" toJunction="3way_7"/>
<trip id="327" depart="109.9047" fromJunction="3way_45" toJunction="3way_13"/>
<trip id="328" depart="110.24080000000001" fromJunction="3way_21" toJunction="3way_14"/>
<trip id="329" depart="110.57690000000001" fromJunction="3way_35" toJunction="4way_10"/>
<trip id="330" depart="110.913" fromJunction="4way_30" toJunction="4way_24"/>
<trip id="331" depart="111.2491" fromJunction="3way_7" toJunction="3way_21"/>
<trip id="332" depart="111.5852" fromJunction="3way_4" toJunction="4way_23"/>
<trip id="333" depart="111.9213" fromJunction="4way_37" toJunction="4way_25"/>
<trip id="334" depart="112.2574" fromJunction="4way_36" toJunction="4way_24"/>
<trip id="335" depart="112.5935" fromJunction="3way_14" toJunction="3way_5"/>
<trip id="336" depart="112.92960000000001" fromJunction="3way_43" toJunction="3way_14"/>
<trip id="337" depart="113.26570000000001" fromJunction="4way_31" toJunction="3way_2"/>
<trip id="338" depart="113.6018" fromJunction="4way_23" toJunction="3way_5"/>
<trip id="339" depart="113.9379" fromJunction="4way_30" toJunction="4way_17"/>
<trip id="340" depart="114.274" fromJunction="3way_5" toJunction="4way_33"/>
<trip id="341" depart="114.6101" fromJunction="3way_2" toJunction="4way_39"/>
<trip id="342" depart="114.9462" fromJunction="3way_14" toJunction="4way_36"/>
<trip id="343" depart="115.2823" fromJunction="3way_28" toJunction="4way_29"/>
<trip id="344" depart="115.61840000000001" fromJunction="3way_1" toJunction="3way_34"/>
<trip id="345" depart="115.95450000000001" fromJunction="4way_25" toJunction="4way_29"/>
<trip id="346" depart="116.2906" fromJunction="3way_47" toJunction="3way_28"/>
<trip id="347" depart="116.6267" fromJunction="3way_5" toJunction="3way_41"/>
<trip id="348" depart="116.9628" fromJunction="3way_3" toJunction="3way_46"/>
<trip id="349" depart="117.2989" fromJunction="4way_32" toJunction="3way_3"/>
<trip id="350" depart="117.635" fromJunction="4way_9" toJunction="3way_27"/>
<trip id="351" depart="117.9711" fromJunction="4way_8" toJunction="4way_38"/>
<trip id="352" depart="118.30720000000001" fromJunction="3way_34" toJunction="3way_20"/>
<trip id="353" depart="118.6433" fromJunction="4way_29" toJunction="3way_7"/>
<trip id="354" depart="118.9794" fromJunction="4way_11" toJunction="3way_35"/>
<trip id="355" depart="119.3155" fromJunction="4way_19" toJunction="4way_31"/>
<trip id="356" depart="119.6516" fromJunction="4way_12" toJunction="3way_2"/>
<trip id="357" depart="119.9877" fromJunction="4way_39" toJunction="3way_21"/>
<trip id="358" depart="120.3238" fromJunction="4way_40" toJunction="4way_17"/>
<trip id="359" depart="120.65990000000001" fromJunction="3way_28" toJunction="4way_38"/>
<trip id="360" depart="120.99600000000001" fromJunction="3way_28" toJunction="4way_22"/>
<trip id="361" depart="121.3321" fromJunction="3way_46" toJunction="3way_28"/>
<trip id="362" depart="121.6682" fromJunction="4way_10" toJunction="4way_22"/>
<trip id="363" depart="122.0043" fromJunction="4way_29" toJunction="3way_45"/>
<trip id="364" depart="122.3404" fromJunction="3way_27" toJunction="3way_13"/>
<trip id="365" depart="122.6765" fromJunction="4way_33" toJunction="3way_3"/>
<trip id="366" depart="123.0126" fromJunction="3way_34" toJunction="3way_1"/>
<trip id="367" depart="123.34870000000001" fromJunction="3way_4" toJunction="4way_23"/>
<trip id="368" depart="123.68480000000001" fromJunction="4way_24" toJunction="4way_39"/>
<trip id="369" depart="124.0209" fromJunction="4way_22" toJunction="4way_33"/>
<trip id="370" depart="124.357" fromJunction="4way_36" toJunction="3way_44"/>
<trip id="371" depart="124.6931" fromJunction="4way_29" toJunction="4way_19"/>
<trip id="372" depart="125.0292" fromJunction="4way_39" toJunction="3way_45"/>
<trip id="373" depart="125.3653" fromJunction="3way_1" toJunction="3way_28"/>
<trip id="374" depart="125.7014" fromJunction="3way_43" toJunction="3way_46"/>