<routes xmlns:xsi="http://www.w3.org/2001/XMLSchema-instance" xsi:noNamespaceSchemaLocation="http://sumo.dlr.de/xsd/routes_file.xsd">
<trip id="0" depart="0.0" fromJunction="4way_55" toJunction="4way_53"/>
<trip id="1" depart="0.2857" fromJunction="4way_53" toJunction="4way_24"/>
<trip id="2" depart="0.5714" fromJunction="4way_74" toJunction="4way_12"/>
<trip id="3" depart="0.8571" fromJunction="4way_67" toJunction="4way_32"/>
<trip id="4" depart="1.1428" fromJunction="4way_51" toJunction="4way_58"/>
<trip id="5" depart="1.4285" fromJunction="4way_33" toJunction="4way_56"/>
<trip id="6" depart="1.7142" fromJunction="4way_18" toJunction="4way_73"/>
<trip id="7" depart="1.9999" fromJunction="3way_19" toJunction="3way_7"/>
<trip id="8" depart="2.2856" fromJunction="4way_86" toJunction="3way_2"/>
<trip id="9" depart="2.5713" fromJunction="4way_47" toJunction="4way_36"/>
<trip id="10" depart="2.857" fromJunction="4way_56" toJunction="4way_68"/>
<trip id="11" depart="3.1427" fromJunction="4way_36" toJunction="4way_52"/>
<trip id="12" depart="3.4284" fromJunction="4way_64" toJunction="3way_49"/>
<trip id="13" depart="3.7141" fromJunction="4way_38" toJunction="3way_69"/>
<trip id="14" depart="3.9998" fromJunction="4way_81" toJunction="4way_33"/>
<trip id="15" depart="4.2855" fromJunction="4way_36" toJunction="3way_70"/>
<trip id="16" depart="4.5712" fromJunction="4way_73" toJunction="4way_42"/>
<trip id="17" depart="4.8569" fromJunction="4way_44" toJunction="3way_2"/>
<trip id="18" depart="5.1426" fromJunction="4way_44" toJunction="4way_34"/>
<trip id="19" depart="5.4283" fromJunction="4way_25" toJunction="4way_38"/>
<trip id="20" depart="5.714" fromJunction="4way_22" toJunction="4way_31"/>
<trip id="21" depart="5.9997" fromJunction="3way_6" toJunction="4way_35"/>
<trip id="22" depart="6.2854" fromJunction="3way_59" toJunction="3way_94"/>
<trip id="23" depart="6.5711" fromJunction="4way_31" toJunction="3way_20"/>
<trip id="24" depart="6.8568" fromJunction="4way_32" toJunction="4way_73"/>
<trip id="25" depart="7.1425" fromJunction="3way_29" toJunction="4way_78"/>
<trip id="26" depart="7.4282" fromJunction="3way_89" toJunction="3way_94"/>
<trip id="27" depart="7.713900000000001" fromJunction="3way_80" toJunction="4way_74"/>
<trip id="28" depart="7.9996" fromJunction="3way_91" toJunction="4way_52"/>
<trip id="29" depart="8.2853" fromJunction="3way_39" toJunction="3way_89"/>
<trip id="30" depart="8.571" fromJunction="3way_69" toJunction="4way_84"/>
<trip id="31" depart="8.8567" fromJunction="4way_41" toJunction="3way_96"/>
<trip id="32" depart="9.1424" fromJunction="3way_29" toJunction="4way_76"/>
<trip id="33" depart="9.4281" fromJunction="3way_29" toJunction="4way_17"/>
<trip id="34" depart="9.7138" fromJunction="4way_52" toJunction="4way_68"/>
<trip id="35" depart="9.999500000000001" fromJunction="4way_34" toJunction="4way_68"/>
<trip id="36" depart="10.2852" fromJunction="3way_4" toJunction="4way_75"/>
<trip id="37" depart="10.5709" fromJunction="3way_49" toJunction="3way_50"/>
<trip id="38" depart="10.8566" fromJunction="3way_49" toJunction="3way_40"/>
<trip id="39" depart="11.1423" fromJunction="4way_81" toJunction="3way_20"/>
<trip id="40" depart="11.428" fromJunction="4way_35" toJunction="3way_7"/>
<trip id="41" depart="11.713700000000001" fromJunction="3way_70" toJunction="4way_73"/>
<trip id="42" depart="11.9994" fromJunction="3way_29" toJunction="4way_33"/>
<trip id="43" depart="12.2851" fromJunction="4way_28" toJunction="4way_83"/>
<trip id="44" depart="12.5708" fromJunction="4way_15" toJunction="3way_20"/>
<trip id="45" depart="12.8565" fromJunction="4way_55" toJunction="3way_59"/>
<trip id="46" depart="13.1422" fromJunction="3way_97" toJunction="3way_50"/>
<trip id="47" depart="13.427900000000001" fromJunction="3way_2" toJunction="4way_14"/>
<trip id="48" depart="13.7136" fromJunction="3way_1" toJunction="4way_86"/>
<trip id="49" depart="13.9993" fromJunction="3way_70" toJunction="4way_25"/>
<trip id="50" depart="14.285" fromJunction="4way_58" toJunction="4way_75"/>
<trip id="51" depart="14.5707" fromJunction="4way_83" toJunction="3way_91"/>
<trip id="52" depart="14.8564" fromJunction="4way_73" toJunction="4way_14"/>
<trip id="53" depart="15.142100000000001" fromJunction="4way_48" toJunction="3way_93"/>
<trip id="54" depart="15.427800000000001" fromJunction="4way_27" toJunction="4way_32"/>
<trip id="55" depart="15.7135" fromJunction="3way_40" toJunction="4way_45"/>
<trip id="56" depart="15.9992" fromJunction="4way_71" toJunction="4way_76"/>
<trip id="57" depart="16.2849" fromJunction="4way_83" toJunction="4way_57"/>
<trip id="58" depart="16.5706" fromJunction="4way_35" toJunction="4way_57"/>
<trip id="59" depart="16.8563" fromJunction="4way_13" toJunction="4way_65"/>
<trip id="60" depart="17.142" fromJunction="4way_64" toJunction="4way_48"/>
<trip id="61" depart="17.4277" fromJunction="4way_34" toJunction="4way_12"/>
<trip id="62" depart="17.7134" fromJunction="3way_40" toJunction="3way_2"/>
<trip id="63" depart="17.999100000000002" fromJunction="3way_50" toJunction="4way_84"/>
<trip id="64" depart="18.2848" fromJunction="4way_22" toJunction="4way_44"/>
<trip id="65" depart="18.5705" fromJunction="3way_40" toJunction="3way_69"/>
<trip id="66" depart="18.8562" fromJunction="4way_14" toJunction="4way_73"/>
<trip id="67" depart="19.1419" fromJunction="4way_74" toJunction="4way_83"/>
<trip id="68" depart="19.4276" fromJunction="4way_22" toJunction="4way_74"/>
<trip id="69" depart="19.7133" fromJunction="4way_41" toJunction="4way_77"/>
<trip id="70" depart="19.999000000000002" fromJunction="4way_67" toJunction="4way_22"/>
<trip id="71" depart="20.2847" fromJunction="4way_45" toJunction="4way_66"/>
<trip id="72" depart="20.5704" fromJunction="4way_18" toJunction="3way_29"/>
<trip id="73" depart="20.8561" fromJunction="4way_88" toJunction="4way_55"/>
<trip id="74" depart="21.1418" fromJunction="4way_47" toJunction="3way_79"/>
<trip id="75" depart="21.427500000000002" fromJunction="4way_44" toJunction="3way_89"/>
<trip id="76" depart="21.7132" fromJunction="4way_27" toJunction="3way_49"/>
<trip id="77" depart="21.9989" fromJunction="4way_73" toJunction="4way_66"/>
<trip id="78" depart="22.2846" fromJunction="3way_7" toJunction="4way_81"/>
<trip id="79" depart="22.5703" fromJunction="4way_42" toJunction="4way_35"/>
<trip id="80" depart="22.856" fromJunction="4way_47" toJunction="4way_65"/>
<trip id="81" depart="23.1417" fromJunction="4way_37" toJunction="4way_68"/>
<trip id="82" depart="23.427400000000002" fromJunction="4way_31" toJunction="3way_2"/>
<trip id="83" depart="23.7131" fromJunction="3way_98" toJunction="4way_75"/>
<trip id="84" depart="23.9988" fromJunction="3way_6" toJunction="4way_33"/>
<trip id="85" depart="24.2845" fromJunction="3way_2" toJunction="3way_95"/>
<trip id="86" depart="24.5702" fromJunction="3way_93" toJunction="4way_56"/>
<trip id="87" depart="24.855900000000002" fromJunction="4way_28" toJunction="4way_21"/>
<trip id="88" depart="25.1416" fromJunction="3way_4" toJunction="4way_45"/>
<trip id="89" depart="25.427300000000002" fromJunction="4way_44" toJunction="3way_89"/>
<trip id="90" depart="25.713" fromJunction="3way_92" toJunction="4way_83"/>
<trip id="91" depart="25.9987" fromJunction="4way_34" toJunction="4way_28"/>
<trip id="92" depart="26.2844" fromJunction="4way_14" toJunction="4way_43"/>
<trip id="93" depart="26.5701" fromJunction="3way_30" toJunction="4way_75"/>
<trip id="94" depart="26.855800000000002" fromJunction="3way_94" toJunction="4way_71"/>
<trip id="95" depart="27.1415" fromJunction="4way_38" toJunction="3way_97"/>
<trip id="96" depart="27.4272" fromJunction="4way_82" toJunction="4way_75"/>
<trip id="97" depart="27.7129" fromJunction="3way_80" toJunction="3way_93"/>
<trip id="98" depart="27.9986" fromJunction="4way_22" toJunction="3way_6"/>
<trip id="99" depart="28.2843" fromJunction="4way_35" toJunction="3way_30"/>
<trip id="100" depart="28.57" fromJunction="3way_97" toJunction="4way_51"/>
<trip id="101" depart="28.855700000000002" fromJunction="3way_7" toJunction="3way_3"/>
<trip id="102" depart="29.1414" fromJunction="4way_42" toJunction="4way_25"/>
<trip id="103" depart="29.4271" fromJunction="4way_77" toJunction="4way_43"/>
<trip id="104" depart="29.7128" fromJunction="3way_94" toJunction="4way_88"/>
<trip id="105" depart="29.9985" fromJunction="3way_70" toJunction="4way_84"/>
<trip id="106" depart="30.284200000000002" fromJunction="4way_16" toJunction="3way_2"/>
<trip id="107" depart="30.5699" fromJunction="4way_51" toJunction="3way_20"/>
<trip id="108" depart="30.855600000000003" fromJunction="4way_86" toJunction="4way_14"/>
<trip id="109" depart="31.1413" fromJunction="4way_47" toJunction="4way_54"/>
<trip id="110" depart="31.427" fromJunction="4way_56" toJunction="3way_60"/>
<trip id="111" depart="31.7127" fromJunction="4way_48" toJunction="3way_97"/>
<trip id="112" depart="31.9984" fromJunction="3way_94" toJunction="4way_25"/>
<trip id="113" depart="32.2841" fromJunction="4way_75" toJunction="4way_38"/>
<trip id="114" depart="32.5698" fromJunction="3way_94" toJunction="3way_80"/>
<trip id="115" depart="32.8555" fromJunction="3way_3" toJunction="4way_23"/>
<trip id="116" depart="33.1412" fromJunction="4way_12" toJunction="3way_95"/>
<trip id="117" depart="33.4269" fromJunction="4way_52" toJunction="4way_41"/>
<trip id="118" depart="33.7126" fromJunction="4way_14" toJunction="3way_60"/>
<trip id="119" depart="33.9983" fromJunction="3way_49" toJunction="4way_37"/>
<trip id="120" depart="34.284" fromJunction="3way_59" toJunction="4way_23"/>
<trip id="121" depart="34.569700000000005" fromJunction="4way_71" toJunction="4way_55"/>
<trip id="122" depart="34.8554" fromJunction="3way_97" toJunction="4way_73"/>
<trip id="123" depart="35.1411" fromJunction="4way_72" toJunction="3way_69"/>
<trip id="124" depart="35.4268" fromJunction="4way_38" toJunction="4way_31"/>
<trip id="125" depart="35.7125" fromJunction="4way_85" toJunction="4way_26"/>
<trip id="126" depart="35.998200000000004" fromJunction="3way_19" toJunction="4way_77"/>
<trip id="127" depart="36.2839" fromJunction="4way_14" toJunction="4way_63"/>
<trip id="128" depart="36.5696" fromJunction="3way_40" toJunction="4way_58"/>
<trip id="129" depart="36.8553" fromJunction="3way_29" toJunction="3way_91"/>
<trip id="130" depart="37.141" fromJunction="4way_28" toJunction="3way_2"/>
<trip id="131" depart="37.426700000000004" fromJunction="4way_46" toJunction="4way_15"/>
<trip id="132" depart="37.7124" fromJunction="4way_14" toJunction="3way_50"/>
<trip id="133" depart="37.9981" fromJunction="4way_72" toJunction="3way_7"/>
<trip id="134" depart="38.2838" fromJunction="4way_57" toJunction="4way_68"/>
<trip id="135" depart="38.5695" fromJunction="4way_58" toJunction="4way_11"/>
<trip id="136" depart="38.8552" fromJunction="4way_48" toJunction="3way_92"/>
<trip id="137" depart="39.1409" fromJunction="4way_56" toJunction="4way_38"/>
<trip id="138" depart="39.4266" fromJunction="4way_47" toJunction="4way_54"/>
<trip id="139" depart="39.7123" fromJunction="4way_27" toJunction="3way_40"/>
<trip id="140" depart="39.998000000000005" fromJunction="3way_2" toJunction="4way_44"/>
<trip id="141" depart="40.2837" fromJunction="3way_79" toJunction="4way_21"/>
<trip id="142" depart="40.5694" fromJunction="4way_62" toJunction="4way_78"/>
<trip id="143" depart="40.8551" fromJunction="4way_64" toJunction="4way_82"/>
<trip id="144" depart="41.1408" fromJunction="3way_69" toJunction="4way_41"/>
<trip id="145" depart="41.426500000000004" fromJunction="3way_96" toJunction="4way_76"/>
<trip id="146" depart="41.7122" fromJunction="3way_93" toJunction="4way_23"/>
<trip id="147" depart="41.9979" fromJunction="4way_37" toJunction="3way_29"/>
<trip id="148" depart="42.2836" fromJunction="4way_58" toJunction="4way_68"/>
<trip id="149" depart="42.5693" fromJunction="4way_36" toJunction="4way_87"/>
<trip id="150" depart="42.855000000000004" fromJunction="3way_8" toJunction="3way_10"/>
<trip id="151" depart="43.1407" fromJunction="3way_92" toJunction="4way_81"/>
<trip id="152" depart="43.4264" fromJunction="3way_6" toJunction="3way_59"/>
<trip id="153" depart="43.7121" fromJunction="3way_2" toJunction="4way_65"/>
<trip id="154" depart="43.9978" fromJunction="3way_79" toJunction="4way_26"/>
<trip id="155" depart="44.283500000000004" fromJunction="3way_19" toJunction="3way_8"/>
<trip id="156" depart="44.5692" fromJunction="3way_91" toJunction="4way_15"/>
<trip id="157" depart="44.8549" fromJunction="4way_63" toJunction="4way_12"/>
<trip id="158" depart="45.1406" fromJunction="4way_65" toJunction="4way_37"/>
<trip id="159" depart="45.426300000000005" fromJunction="3way_59" toJunction="3way_70"/>
<trip id="160" depart="45.712" fromJunction="3way_40" toJunction="3way_6"/>
<trip id="161" depart="45.9977" fromJunction="4way_42" toJunction="3way_70"/>
<trip id="162" depart="46.2834" fromJunction="4way_35" toJunction="4way_25"/>
<trip id="163" depart="46.5691" fromJunction="4way_51" toJunction="3way_50"/>
<trip id="164" depart="46.854800000000004" fromJunction="4way_46" toJunction="3way_97"/>
<trip id="165" depart="47.1405" fromJunction="4way_35" toJunction="3way_6"/>
<trip id="166" depart="47.4262" fromJunction="4way_41" toJunction="3way_80"/>
<trip id="167" depart="47.7119" fromJunction="3way_60" toJunction="4way_14"/>
<trip id="168" depart="47.9976" fromJunction="3way_96" toJunction="4way_41"/>
<trip id="169" depart="48.283300000000004" fromJunction="3way_5" toJunction="4way_52"/>
<trip id="170" depart="48.569" fromJunction="3way_8" toJunction="4way_56"/>
<trip id="171" depart="48.8547" fromJunction="3way_30" toJunction="4way_23"/>
<trip id="172" depart="49.1404" fromJunction="4way_58" toJunction="4way_83"/>
<trip id="173" depart="49.4261" fromJunction="3way_4" toJunction="4way_64"/>
<trip id="174" depart="49.711800000000004" fromJunction="4way_13" toJunction="4way_22"/>
<trip id="175" depart="49.9975" fromJunction="4way_25" toJunction="4way_43"/>
<trip id="176" depart="50.2832" fromJunction="3way_59" toJunction="3way_60"/>
<trip id="177" depart="50.5689" fromJunction="4way_48" toJunction="4way_61"/>
<trip id="178" depart="50.854600000000005" fromJunction="4way_77" toJunction="3way_97"/>
<trip id="179" depart="51.1403" fromJunction="4way_42" toJunction="4way_53"/>
<trip id="180" depart="51.426" fromJunction="4way_52" toJunction="4way_57"/>
<trip id="181" depart="51.7117" fromJunction="4way_71" toJunction="4way_65"/>
<trip id="182" depart="51.9974" fromJunction="4way_35" toJunction="4way_77"/>
<trip id="183" depart="52.283100000000005" fromJunction="3way_10" toJunction="4way_45"/>
<trip id="184" depart="52.5688" fromJunction="4way_64" toJunction="4way_16"/>
<trip id="185" depart="52.8545" fromJunction="3way_89" toJunction="3way_91"/>
<trip id="186" depart="53.1402" fromJunction="4way_58" toJunction="4way_56"/>
<trip id="187" depart="53.4259" fromJunction="4way_14" toJunction="4way_42"/>
<trip id="188" depart="53.711600000000004" fromJunction="4way_42" toJunction="4way_37"/>
<trip id="189" depart="53.9973" fromJunction="4way_83" toJunction="4way_48"/>
<trip id="190" depart="54.283" fromJunction="4way_87" toJunction="4way_76"/>
<trip id="191" depart="54.5687" fromJunction="3way_89" toJunction="4way_76"/>
<trip id="192" depart="54.8544" fromJunction="4way_71" toJunction="4way_54"/>
<trip id="193" depart="55.140100000000004" fromJunction="4way_12" toJunction="3way_7"/>
<trip id="194" depart="55.4258" fromJunction="4way_27" toJunction="3way_80"/>
<trip id="195" depart="55.7115" fromJunction="4way_58" toJunction="3way_4"/>
<trip id="196" depart="55.9972" fromJunction="3way_97" toJunction="3way_2"/>
<trip id="197" depart="56.282900000000005" fromJunction="4way_28" toJunction="4way_71"/>
<trip id="198" depart="56.5686" fromJunction="4way_38" toJunction="3way_29"/>
<trip id="199" depart="56.8543" fromJunction="4way_42" toJunction="4way_47"/>
<trip id="200" depart="57.14" fromJunction="3way_92" toJunction="3way_10"/>
<trip id="201" depart="57.4257" fromJunction="3way_4" toJunction="4way_34"/>
<trip id="202" depart="57.711400000000005" fromJunction="4way_22" toJunction="3way_2"/>
<trip id="203" depart="57.9971" fromJunction="3way_80" toJunction="3way_7"/>
<trip id="204" depart="58.2828" fromJunction="3way_80" toJunction="3way_93"/>
<trip id="205" depart="58.5685" fromJunction="3way_2" toJunction="3way_59"/>
<trip id="206" depart="58.8542" fromJunction="4way_44" toJunction="3way_49"/>
<trip id="207" depart="59.139900000000004" fromJunction="4way_88" toJunction="4way_68"/>
<trip id="208" depart="59.4256" fromJunction="3way_89" toJunction="4way_81"/>
<trip id="209" depart="59.7113" fromJunction="4way_82" toJunction="4way_64"/>
<trip id="210" depart="59.997" fromJunction="3way_7" toJunction="4way_78"/>
<trip id="211" depart="60.282700000000006" fromJunction="3way_50" toJunction="4way_46"/>
<trip id="212" depart="60.568400000000004" fromJunction="4way_84" toJunction="3way_91"/>
<trip id="213" depart="60.8541" fromJunction="4way_84" toJunction="3way_91"/>
<trip id="214" depart="61.1398" fromJunction="4way_12" toJunction="4way_23"/>
<trip id="215" depart="61.4255" fromJunction="3way_50" toJunction="4way_63"/>
<trip id="216" depart="61.711200000000005" fromJunction="4way_81" toJunction="4way_45"/>
<trip id="217" depart="61.996900000000004" fromJunction="4way_86" toJunction="4way_31"/>
<trip id="218" depart="62.2826" fromJunction="3way_5" toJunction="4way_18"/>
<trip id="219" depart="62.5683" fromJunction="4way_21" toJunction="3way_92"/>
<trip id="220" depart="62.854" fromJunction="4way_78" toJunction="4way_76"/>
<trip id="221" depart="63.139700000000005" fromJunction="4way_77" toJunction="4way_68"/>
<trip id="222" depart="63.4254" fromJunction="4way_88" toJunction="3way_40"/>
<trip id="223" depart="63.7111" fromJunction="3way_39" toJunction="3way_91"/>
<trip id="224" depart="63.9968" fromJunction="3way_92" toJunction="4way_48"/>
<trip id="225" depart="64.2825" fromJunction="3way_6" toJunction="4way_35"/>
<trip id="226" depart="64.5682" fromJunction="4way_57" toJunction="4way_75"/>
<trip id="227" depart="64.8539" fromJunction="4way_51" toJunction="3way_60"/>
<trip id="228" depart="65.1396" fromJunction="4way_85" toJunction="4way_41"/>
<trip id="229" depart="65.42530000000001" fromJunction="3way_98" toJunction="3way_92"/>
<trip id="230" depart="65.711" fromJunction="3way_30" toJunction="4way_42"/>
<trip id="231" depart="65.9967" fromJunction="3way_92" toJunction="4way_17"/>
<trip id="232" depart="66.2824" fromJunction="4way_38" toJunction="4way_13"/>
<trip id="233" depart="66.5681" fromJunction="4way_47" toJunction="4way_54"/>
<trip id="234" depart="66.8538" fromJunction="4way_16" toJunction="4way_38"/>
<trip id="235" depart="67.1395" fromJunction="4way_58" toJunction="4way_45"/>
<trip id="236" depart="67.4252" fromJunction="4way_42" toJunction="4way_88"/>
<trip id="237" depart="67.7109" fromJunction="3way_40" toJunction="3way_7"/>
<trip id="238" depart="67.9966" fromJunction="4way_12" toJunction="3way_79"/>
<trip id="239" depart="68.2823" fromJunction="4way_24" toJunction="3way_59"/>
<trip id="240" depart="68.568" fromJunction="4way_67" toJunction="4way_51"/>
<trip id="241" depart="68.8537" fromJunction="4way_53" toJunction="4way_58"/>
<trip id="242" depart="69.13940000000001" fromJunction="4way_14" toJunction="3way_60"/>
<trip id="243" depart="69.4251" fromJunction="4way_81" toJunction="4way_77"/>
<trip id="244" depart="69.7108" fromJunction="3way_60" toJunction="4way_53"/>
<trip id="245" depart="69.9965" fromJunction="4way_71" toJunction="4way_42"/>
<trip id="246" depart="70.2822" fromJunction="4way_13" toJunction="3way_91"/>
<trip id="247" depart="70.56790000000001" fromJunction="4way_41" toJunction="3way_30"/>
<trip id="248" depart="70.8536" fromJunction="4way_16" toJunction="4way_33"/>
<trip id="249" depart="71.1393" fromJunction="4way_18" toJunction="4way_11"/>
<trip id="250" depart="71.425" fromJunction="3way_5" toJunction="4way_37"/>
<trip id="251" depart="71.7107" fromJunction="4way_32" toJunction="3way_80"/>
<trip id="252" depart="71.99640000000001" fromJunction="4way_21" toJunction="3way_39"/>
<trip id="253" depart="72.2821" fromJunction="4way_25" toJunction="4way_85"/>
<trip id="254" depart="72.5678" fromJunction="4way_55" toJunction="4way_44"/>
<trip id="255" depart="72.8535" fromJunction="4way_11" toJunction="3way_95"/>
<trip id="256" depart="73.1392" fromJunction="4way_57" toJunction="4way_15"/>
<trip id="257" depart="73.42490000000001" fromJunction="3way_50" toJunction="4way_53"/>
<trip id="258" depart="73.7106" fromJunction="4way_55" toJunction="3way_3"/>
<trip id="259" depart="73.9963" fromJunction="4way_41" toJunction="3way_1"/>
<trip id="260" depart="74.282" fromJunction="4way_18" toJunction="4way_33"/>
<trip id="261" depart="74.5677" fromJunction="4way_71" toJunction="3way_19"/>
<trip id="262" depart="74.85340000000001" fromJunction="4way_11" toJunction="3way_3"/>
<trip id="263" depart="75.1391" fromJunction="3way_60" toJunction="4way_44"/>
<trip id="264" depart="75.4248" fromJunction="3way_49" toJunction="3way_94"/>
<trip id="265" depart="75.7105" fromJunction="4way_35" toJunction="4way_83"/>
<trip id="266" depart="75.9962" fromJunction="4way_48" toJunction="4way_15"/>
<trip id="267" depart="76.28190000000001" fromJunction="4way_74" toJunction="3way_1"/>
<trip id="268" depart="76.5676" fromJunction="4way_14" toJunction="4way_24"/>
<trip id="269" depart="76.8533" fromJunction="3way_2" toJunction="4way_58"/>
<trip id="270" depart="77.139" fromJunction="4way_76" toJunction="4way_35"/>
<trip id="271" depart="77.4247" fromJunction="4way_11" toJunction="4way_13"/>
<trip id="272" depart="77.7104" fromJunction="3way_29" toJunction="4way_46"/>
<trip id="273" depart="77.9961" fromJunction="4way_23" toJunction="4way_32"/>
<trip id="274" depart="78.2818" fromJunction="3way_19" toJunction="4way_35"/>
<trip id="275" depart="78.56750000000001" fromJunction="4way_81" toJunction="3way_93"/>
<trip id="276" depart="78.8532" fromJunction="4way_67" toJunction="4way_44"/>
<trip id="277" depart="79.1389" fromJunction="3way_59" toJunction="4way_44"/>
<trip id="278" depart="79.4246" fromJunction="4way_47" toJunction="4way_78"/>
<trip id="279" depart="79.7103" fromJunction="4way_18" toJunction="4way_13"/>
<trip id="280" depart="79.99600000000001" fromJunction="4way_18" toJunction="4way_43"/>
<trip id="281" depart="80.2817" fromJunction="4way_58" toJunction="4way_86"/>
<trip id="282" depart="80.5674" fromJunction="3way_4" toJunction="4way_18"/>
<trip id="283" depart="80.8531" fromJunction="4way_61" toJunction="3way_98"/>
<trip id="284" depart="81.1388" fromJunction="3way_40" toJunction="4way_48"/>
<trip id="285" depart="81.42450000000001" fromJunction="4way_67" toJunction="3way_89"/>
<trip id="286" depart="81.7102" fromJunction="4way_87" toJunction="4way_32"/>
<trip id="287" depart="81.9959" fromJunction="4way_84" toJunction="3way_89"/>
<trip id="288" depart="82.2816" fromJunction="3way_8" toJunction="4way_32"/>
<trip id="289" depart="82.5673" fromJunction="3way_91" toJunction="4way_35"/>
<trip id="290" depart="82.85300000000001" fromJunction="3way_6" toJunction="3way_4"/>
<trip id="291" depart="83.1387" fromJunction="4way_87" toJunction="3way_6"/>
<trip id="292" depart="83.4244" fromJunction="4way_77" toJunction="4way_85"/>
<trip id="293" depart="83.7101" fromJunction="4way_33" toJunction="4way_15"/>
<trip id="294" depart="83.9958" fromJunction="4way_88" toJunction="3way_30"/>
<trip id="295" depart="84.28150000000001" fromJunction="4way_62" toJunction="4way_31"/>
<trip id="296" depart="84.5672" fromJunction="4way_78" toJunction="4way_51"/>
<trip id="297" depart="84.8529" fromJunction="3way_10" toJunction="3way_98"/>
<trip id="298" depart="85.1386" fromJunction="3way_7" toJunction="4way_25"/>
<trip id="299" depart="85.4243" fromJunction="4way_62" toJunction="4way_34"/>
<trip id="300" depart="85.71000000000001" fromJunction="3way_92" toJunction="3way_50"/>
<trip id="301" depart="85.9957" fromJunction="4way_41" toJunction="4way_23"/>
<trip id="302" depart="86.2814" fromJunction="4way_11" toJunction="4way_42"/>
<trip id="303" depart="86.5671" fromJunction="3way_59" toJunction="4way_68"/>
<trip id="304" depart="86.8528" fromJunction="4way_11" toJunction="3way_29"/>
<trip id="305" depart="87.13850000000001" fromJunction="4way_84" toJunction="4way_14"/>
<trip id="306" depart="87.4242" fromJunction="4way_88" toJunction="4way_71"/>
<trip id="307" depart="87.7099" fromJunction="4way_65" toJunction="4way_21"/>
<trip id="308" depart="87.9956" fromJunction="4way_76" toJunction="4way_64"/>
<trip id="309" depart="88.2813" fromJunction="4way_67" toJunction="4way_68"/>
<trip id="310" depart="88.56700000000001" fromJunction="4way_45" toJunction="4way_26"/>
<trip id="311" depart="88.8527" fromJunction="3way_79" toJunction="4way_11"/>
<trip id="312" depart="89.1384" fromJunction="3way_91" toJunction="3way_7"/>
<trip id="313" depart="89.42410000000001" fromJunction="4way_33" toJunction="4way_22"/>
<trip id="314" depart="89.7098" fromJunction="4way_58" toJunction="4way_36"/>
<trip id="315" depart="89.9955" fromJunction="3way_39" toJunction="3way_49"/>
<trip id="316" depart="90.2812" fromJunction="4way_85" toJunction="4way_14"/>
<trip id="317" depart="90.5669" fromJunction="4way_28" toJunction="4way_27"/>
<trip id="318" depart="90.85260000000001" fromJunction="4way_71" toJunction="4way_78"/>
<trip id="319" depart="91.1383" fromJunction="3way_79" toJunction="4way_51"/>
<trip id="320" depart="91.424" fromJunction="4way_84" toJunction="4way_25"/>
<trip id="321" depart="91.7097" fromJunction="3way_29" toJunction="4way_37"/>
<trip id="322" depart="91.9954" fromJunction="4way_83" toJunction="4way_82"/>
<trip id="323" depart="92.28110000000001" fromJunction="3way_98" toJunction="3way_91"/>
<trip id="324" depart="92.5668" fromJunction="3way_6" toJunction="4way_37"/>
<trip id="325" depart="92.8525" fromJunction="3way_49" toJunction="4way_62"/>
<trip id="326" depart="93.1382" fromJunction="4way_78" toJunction="4way_42"/>
<trip id="327" depart="93.4239" fromJunction="4way_37" toJunction="4way_12"/>
<trip id="328" depart="93.70960000000001" fromJunction="3way_60" toJunction="3way_49"/>
<trip id="329" depart="93.9953" fromJunction="4way_21" toJunction="4way_15"/>
<trip id="330" depart="94.281" fromJunction="4way_64" toJunction="4way_55"/>
<trip id="331" depart="94.5667" fromJunction="4way_22" toJunction="4way_71"/>
<trip id="332" depart="94.8524" fromJunction="3way_7" toJunction="4way_34"/>
<trip id="333" depart="95.13810000000001" fromJunction="4way_74" toJunction="4way_76"/>
<trip id="334" depart="95.4238" fromJunction="4way_43" toJunction="4way_65"/>
<trip id="335" depart="95.7095" fromJunction="4way_71" toJunction="3way_39"/>
<trip id="336" depart="95.9952" fromJunction="3way_20" toJunction="4way_71"/>
<trip id="337" depart="96.2809" fromJunction="4way_75" toJunction="3way_3"/>
<trip id="338" depart="96.56660000000001" fromJunction="4way_34" toJunction="3way_39"/>
<trip id="339" depart="96.8523" fromJunction="4way_54" toJunction="4way_45"/>
<trip id="340" depart="97.138" fromJunction="3way_29" toJunction="4way_58"/>
<trip id="341" depart="97.4237" fromJunction="3way_3" toJunction="4way_47"/>
<trip id="342" depart="97.7094" fromJunction="4way_71" toJunction="4way_43"/>
<trip id="343" depart="97.99510000000001" fromJunction="4way_41" toJunction="4way_33"/>
<trip id="344" depart="98.2808" fromJunction="3way_2" toJunction="3way_96"/>
<trip id="345" depart="98.5665" fromJunction="4way_17" toJunction="4way_23"/>
<trip id="346" depart="98.8522" fromJunction="3way_93" toJunction="4way_41"/>
<trip id="347" depart="99.1379" fromJunction="3way_19" toJunction="3way_8"/>
<trip id="348" depart="99.42360000000001" fromJunction="3way_29" toJunction="3way_93"/>
<trip id="349" depart="99.7093" fromJunction="3way_7" toJunction="3way_70"/>
<trip id="350" depart="99.995" fromJunction="4way_37" toJunction="3way_7"/>
<trip id="351" depart="100.28070000000001" fromJunction="4way_63" toJunction="3way_89"/>
<trip id="352" depart="100.5664" fromJunction="4way_42" toJunction="4way_36"/>
<trip id="353" depart="100.85210000000001" fromJunction="3way_95" toJunction="3way_79"/>
<trip id="354" depart="101.1378" fromJunction="4way_33" toJunction="4way_22"/>
<trip id="355" depart="101.4235" fromJunction="4way_46" toJunction="4way_21"/>
<trip id="356" depart="101.70920000000001" fromJunction="4way_28" toJunction="4way_16"/>
<trip id="357" depart="101.9949" fromJunction="4way_67" toJunction="3way_3"/>
<trip id="358" depart="102.2806" fromJunction="4way_57" toJunction="4way_61"/>
<trip id="359" depart="102.5663" fromJunction="4way_78" toJunction="4way_35"/>
<trip id="360" depart="102.852" fromJunction="4way_31" toJunction="4way_16"/>
<trip id="361" depart="103.13770000000001" fromJunction="4way_51" toJunction="4way_13"/>
<trip id="362" depart="103.4234" fromJunction="3way_70" toJunction="4way_41"/>
<trip id="363" depart="103.7091" fromJunction="4way_25" toJunction="4way_82"/>
<trip id="364" depart="103.9948" fromJunction="4way_33" toJunction="3way_60"/>
<trip id="365" depart="104.2805" fromJunction="3way_89" toJunction="3way_49"/>
<trip id="366" depart="104.56620000000001" fromJunction="4way_68" toJunction="3way_5"/>
<trip id="367" depart="104.8519" fromJunction="3way_97" toJunction="3way_1"/>
<trip id="368" depart="105.1376" fromJunction="3way_8" toJunction="4way_34"/>
<trip id="369" depart="105.4233" fromJunction="4way_65" toJunction="4way_57"/>
<trip id="370" depart="105.709" fromJunction="4way_13" toJunction="4way_58"/>
<trip id="371" depart="105.99470000000001" fromJunction="4way_53" toJunction="3way_40"/>
<trip id="372" depart="106.2804" fromJunction="4way_23" toJunction="4way_28"/>
<trip id="373" depart="106.5661" fromJunction="4way_57" toJunction="3way_70"/>
<trip id="374" depart="106.8518" fromJunction="3way_1" toJunction="4way_41"/>
<trip id="375" depart="107.1375" fromJunction="3way_20" toJunction="3way_91"/>