<routes xmlns:xsi="http://www.w3.org/2001/XMLSchema-instance" xsi:noNamespaceSchemaLocation="http://sumo.dlr.de/xsd/routes_file.xsd">
<trip id="0" depart="0.0" fromJunction="4way_20" toJunction="4way_13"/>
<trip id="1" depart="3.3333" fromJunction="4way_13" toJunction="4way_25"/>
<trip id="2" depart="6.6666" fromJunction="4way_8" toJunction="3way_18"/>
<trip id="3" depart="9.9999" fromJunction="4way_10" toJunction="3way_12"/>
<trip id="4" depart="13.3332" fromJunction="3way_24" toJunction="4way_22"/>
<trip id="5" depart="16.6665" fromJunction="4way_7" toJunction="4way_15"/>
<trip id="6" depart="19.9998" fromJunction="4way_16" toJunction="4way_19"/>
<trip id="7" depart="23.333099999999998" fromJunction="4way_21" toJunction="3way_1"/>
<trip id="8" depart="26.6664" fromJunction="4way_27" toJunction="4way_9"/>
<trip id="9" depart="29.9997" fromJunction="4way_15" toJunction="4way_28"/>
<trip id="10" depart="33.333" fromJunction="4way_9" toJunction="3way_12"/>
<trip id="11" depart="36.6663" fromJunction="4way_8" toJunction="3way_4"/>
<trip id="12" depart="39.9996" fromJunction="4way_22" toJunction="3way_11"/>
<trip id="13" depart="43.3329" fromJunction="3way_18" toJunction="4way_7"/>
<trip id="14" depart="46.666199999999996" fromJunction="4way_9" toJunction="3way_34"/>
<trip id="15" depart="49.9995" fromJunction="4way_19" toJunction="3way_12"/>
<trip id="16" depart="53.3328" fromJunction="4way_25" toJunction="3way_1"/>
<trip id="17" depart="56.6661" fromJunction="4way_14" toJunction="4way_22"/>
<trip id="18" depart="59.9994" fromJunction="3way_18" toJunction="3way_31"/>
<trip id="19" depart="63.332699999999996" fromJunction="3way_2" toJunction="4way_20"/>
<trip id="20" depart="66.666" fromJunction="3way_11" toJunction="3way_23"/>
<trip id="21" depart="69.9993" fromJunction="3way_31" toJunction="3way_32"/>
<trip id="22" depart="73.3326" fromJunction="3way_12" toJunction="4way_19"/>
<trip id="23" depart="76.6659" fromJunction="3way_4" toJunction="4way_28"/>
<trip id="24" depart="79.9992" fromJunction="3way_17" toJunction="3way_23"/>
<trip id="25" depart="83.3325" fromJunction="3way_34" toJunction="4way_8"/>
<trip id="26" depart="86.6658" fromJunction="3way_29" toJunction="3way_12"/>
<trip id="27" depart="89.9991" fromJunction="3way_4" toJunction="3way_17"/>
<trip id="28" depart="93.33239999999999" fromJunction="3way_11" toJunction="4way_14"/>
<trip id="29" depart="96.6657" fromJunction="3way_31" toJunction="3way_23"/>
<trip id="30" depart="99.999" fromJunction="3way_4" toJunction="4way_21"/>
<trip id="31" depart="103.3323" fromJunction="3way_4" toJunction="4way_21"/>
<trip id="32" depart="106.6656" fromJunction="3way_12" toJunction="4way_28"/>
<trip id="33" depart="109.99889999999999" fromJunction="4way_25" toJunction="4way_28"/>
<trip id="34" depart="113.3322" fromJunction="3way_2" toJunction="4way_26"/>
<trip id="35" depart="116.6655" fromJunction="3way_4" toJunction="3way_33"/>
<trip id="36" depart="119.9988" fromJunction="3way_4" toJunction="3way_33"/>
<trip id="37" depart="123.3321" fromJunction="3way_18" toJunction="3way_32"/>
<trip id="38" depart="126.66539999999999" fromJunction="4way_20" toJunction="3way_3"/>
<trip id="39" depart="129.99869999999999" fromJunction="3way_34" toJunction="4way_19"/>
<trip id="40" depart="133.332" fromJunction="3way_4" toJunction="4way_7"/>
<trip id="41" depart="136.6653" fromJunction="4way_16" toJunction="4way_19"/>
<trip id="42" depart="139.9986" fromJunction="4way_14" toJunction="3way_32"/>
<trip id="43" depart="143.3319" fromJunction="4way_20" toJunction="3way_11"/>
<trip id="44" depart="146.6652" fromJunction="3way_17" toJunction="3way_33"/>
<trip id="45" depart="149.9985" fromJunction="3way_1" toJunction="4way_19"/>
<trip id="46" depart="153.3318" fromJunction="3way_1" toJunction="4way_21"/>
<trip id="47" depart="156.6651" fromJunction="3way_34" toJunction="4way_14"/>
<trip id="48" depart="159.9984" fromJunction="4way_22" toJunction="4way_26"/>
<trip id="49" depart="163.33169999999998" fromJunction="4way_19" toJunction="3way_29"/>
<trip id="50" depart="166.665" fromJunction="4way_22" toJunction="3way_29"/>
<trip id="51" depart="169.9983" fromJunction="4way_27" toJunction="3way_12"/>
<trip id="52" depart="173.3316" fromJunction="3way_33" toJunction="4way_20"/>
<trip id="53" depart="176.6649" fromJunction="3way_24" toJunction="4way_21"/>
<trip id="54" depart="179.9982" fromJunction="4way_19" toJunction="4way_10"/>
<trip id="55" depart="183.3315" fromJunction="4way_20" toJunction="4way_10"/>
<trip id="56" depart="186.66479999999999" fromJunction="4way_7" toJunction="4way_26"/>
<trip id="57" depart="189.9981" fromJunction="4way_8" toJunction="4way_22"/>
<trip id="58" depart="193.3314" fromJunction="4way_25" toJunction="3way_18"/>
<trip id="59" depart="196.66469999999998" fromJunction="3way_33" toJunction="3way_1"/>
<trip id="60" depart="199.998" fromJunction="3way_33" toJunction="4way_14"/>
<trip id="61" depart="203.3313" fromJunction="3way_18" toJunction="4way_25"/>
<trip id="62" depart="206.6646" fromJunction="3way_33" toJunction="3way_11"/>
<trip id="63" depart="209.9979" fromJunction="4way_8" toJunction="4way_19"/>
<trip id="64" depart="213.3312" fromJunction="3way_18" toJunction="4way_8"/>
<trip id="65" depart="216.6645" fromJunction="3way_31" toJunction="4way_10"/>
<trip id="66" depart="219.99779999999998" fromJunction="4way_10" toJunction="3way_18"/>
<trip id="67" depart="223.3311" fromJunction="4way_20" toJunction="4way_15"/>
<trip id="68" depart="226.6644" fromJunction="4way_16" toJunction="3way_4"/>
<trip id="69" depart="229.9977" fromJunction="4way_28" toJunction="4way_20"/>
<trip id="70" depart="233.331" fromJunction="4way_27" toJunction="3way_11"/>
<trip id="71" depart="236.6643" fromJunction="4way_25" toJunction="3way_17"/>
<trip id="72" depart="239.9976" fromJunction="4way_27" toJunction="3way_4"/>
<trip id="73" depart="243.33089999999999" fromJunction="4way_19" toJunction="4way_15"/>
<trip id="74" depart="246.6642" fromJunction="3way_3" toJunction="3way_18"/>
<trip id="75" depart="249.9975" fromJunction="3way_12" toJunction="4way_20"/>
<trip id="76" depart="253.33079999999998" fromJunction="4way_27" toJunction="4way_26"/>
<trip id="77" depart="256.6641" fromJunction="4way_27" toJunction="4way_28"/>
<trip id="78" depart="259.99739999999997" fromJunction="3way_31" toJunction="3way_1"/>
<trip id="79" depart="263.3307" fromJunction="3way_17" toJunction="4way_26"/>
<trip id="80" depart="266.664" fromJunction="3way_2" toJunction="4way_7"/>
<trip id="81" depart="269.9973" fromJunction="3way_1" toJunction="3way_23"/>
<trip id="82" depart="273.3306" fromJunction="3way_29" toJunction="4way_15"/>
<trip id="83" depart="276.6639" fromJunction="4way_16" toJunction="3way_31"/>
<trip id="84" depart="279.9972" fromJunction="3way_2" toJunction="4way_20"/>
<trip id="85" depart="283.3305" fromJunction="4way_25" toJunction="3way_17"/>
<trip id="86" depart="286.6638" fromJunction="3way_29" toJunction="4way_19"/>
<trip id="87" depart="289.9971" fromJunction="4way_25" toJunction="4way_16"/>
<trip id="88" depart="293.3304" fromJunction="4way_19" toJunction="4way_13"/>
<trip id="89" depart="296.6637" fromJunction="3way_33" toJunction="4way_26"/>
<trip id="90" depart="299.997" fromJunction="3way_23" toJunction="3way_24"/>
<trip id="91" depart="303.33029999999997" fromJunction="4way_22" toJunction="3way_17"/>
<trip id="92" depart="306.6636" fromJunction="3way_6" toJunction="4way_26"/>
<trip id="93" depart="309.9969" fromJunction="3way_34" toJunction="3way_29"/>
<trip id="94" depart="313.3302" fromJunction="3way_18" toJunction="3way_2"/>
<trip id="95" depart="316.6635" fromJunction="4way_20" toJunction="3way_33"/>
<trip id="96" depart="319.9968" fromJunction="3way_17" toJunction="3way_24"/>
<trip id="97" depart="323.3301" fromJunction="3way_3" toJunction="3way_1"/>
<trip id="98" depart="326.66339999999997" fromJunction="3way_12" toJunction="4way_14"/>
<trip id="99" depart="329.9967" fromJunction="4way_10" toJunction="4way_13"/>
<trip id="100" depart="333.33" fromJunction="3way_23" toJunction="4way_28"/>
<trip id="101" depart="336.6633" fromJunction="3way_34" toJunction="4way_14"/>
<trip id="102" depart="339.9966" fromJunction="4way_9" toJunction="3way_1"/>
<trip id="103" depart="343.3299" fromJunction="3way_24" toJunction="3way_32"/>
<trip id="104" depart="346.6632" fromJunction="4way_21" toJunction="4way_19"/>
<trip id="105" depart="349.99649999999997" fromJunction="4way_27" toJunction="4way_8"/>
<trip id="106" depart="353.3298" fromJunction="4way_15" toJunction="3way_34"/>
<trip id="107" depart="356.6631" fromJunction="4way_22" toJunction="3way_17"/>
<trip id="108" depart="359.9964" fromJunction="3way_23" toJunction="4way_14"/>
<trip id="109" depart="363.3297" fromJunction="4way_26" toJunction="4way_22"/>
<trip id="110" depart="366.663" fromJunction="3way_23" toJunction="3way_34"/>
<trip id="111" depart="369.9963" fromJunction="3way_1" toJunction="4way_7"/>
<trip id="112" depart="373.32959999999997" fromJunction="3way_18" toJunction="3way_23"/>
<trip id="113" depart="376.6629" fromJunction="3way_12" toJunction="3way_31"/>
<trip id="114" depart="379.9962" fromJunction="4way_19" toJunction="3way_34"/>
<trip id="115" depart="383.3295" fromJunction="3way_4" toJunction="4way_27"/>
<trip id="116" depart="386.6628" fromJunction="3way_11" toJunction="4way_7"/>
<trip id="117" depart="389.9961" fromJunction="3way_24" toJunction="4way_20"/>
<trip id="118" depart="393.32939999999996" fromJunction="3way_17" toJunction="4way_19"/>
<trip id="119" depart="396.6627" fromJunction="3way_6" toJunction="3way_11"/>
<trip id="120" depart="399.996" fromJunction="4way_22" toJunction="3way_31"/>
<trip id="121" depart="403.3293" fromJunction="4way_26" toJunction="4way_9"/>
<trip id="122" depart="406.6626" fromJunction="3way_3" toJunction="4way_10"/>
<trip id="123" depart="409.9959" fromJunction="4way_19" toJunction="4way_13"/>
<trip id="124" depart="413.3292" fromJunction="3way_33" toJunction="4way_22"/>
<trip id="125" depart="416.66249999999997" fromJunction="3way_4" toJunction="3way_29"/>
<trip id="126" depart="419.9958" fromJunction="4way_16" toJunction="3way_1"/>
<trip id="127" depart="423.3291" fromJunction="4way_15" toJunction="4way_14"/>
<trip id="128" depart="426.6624" fromJunction="4way_19" toJunction="3way_33"/>
<trip id="129" depart="429.9957" fromJunction="3way_6" toJunction="3way_3"/>
<trip id="130" depart="433.329" fromJunction="4way_10" toJunction="4way_28"/>
<trip id="131" depart="436.6623" fromJunction="4way_22" toJunction="3way_32"/>
<trip id="132" depart="439.99559999999997" fromJunction="4way_22" toJunction="3way_29"/>
<trip id="133" depart="443.3289" fromJunction="4way_15" toJunction="4way_22"/>
<trip id="134" depart="446.6622" fromJunction="4way_27" toJunction="4way_8"/>
<trip id="135" depart="449.9955" fromJunction="4way_27" toJunction="3way_33"/>
<trip id="136" depart="453.3288" fromJunction="3way_1" toJunction="4way_25"/>
<trip id="137" depart="456.6621" fromJunction="3way_11" toJunction="3way_31"/>
<trip id="138" depart="459.9954" fromJunction="3way_6" toJunction="4way_28"/>
<trip id="139" depart="463.32869999999997" fromJunction="4way_8" toJunction="3way_6"/>
<trip id="140" depart="466.662" fromJunction="3way_11" toJunction="3way_31"/>
<trip id="141" depart="469.9953" fromJunction="3way_23" toJunction="4way_21"/>
<trip id="142" depart="473.3286" fromJunction="3way_29" toJunction="4way_7"/>
<trip id="143" depart="476.6619" fromJunction="4way_27" toJunction="3way_4"/>
<trip id="144" depart="479.9952" fromJunction="4way_22" toJunction="4way_28"/>
<trip id="145" depart="483.32849999999996" fromJunction="4way_9" toJunction="4way_16"/>
<trip id="146" depart="486.66179999999997" fromJunction="3way_3" toJunction="3way_32"/>
<trip id="147" depart="489.9951" fromJunction="3way_29" toJunction="3way_18"/>
<trip id="148" depart="493.3284" fromJunction="3way_2" toJunction="3way_11"/>
<trip id="149" depart="496.6617" fromJunction="3way_1" toJunction="4way_26"/>
<trip id="150" depart="499.995" fromJunction="3way_11" toJunction="4way_9"/>
<trip id="151" depart="503.3283" fromJunction="3way_29" toJunction="4way_14"/>
<trip id="152" depart="506.66159999999996" fromJunction="4way_13" toJunction="3way_18"/>
<trip id="153" depart="509.9949" fromJunction="4way_26" toJunction="4way_27"/>
<trip id="154" depart="513.3282" fromJunction="3way_11" toJunction="3way_34"/>
<trip id="155" depart="516.6614999999999" fromJunction="3way_33" toJunction="3way_2"/>
<trip id="156" depart="519.9947999999999" fromJunction="3way_12" toJunction="3way_34"/>
<trip id="157" depart="523.3281" fromJunction="4way_20" toJunction="4way_14"/>
<trip id="158" depart="526.6614" fromJunction="3way_24" toJunction="3way_33"/>
<trip id="159" depart="529.9947" fromJunction="4way_15" toJunction="3way_17"/>
<trip id="160" depart="533.328" fromJunction="4way_20" toJunction="3way_2"/>
<trip id="161" depart="536.6613" fromJunction="3way_31" toJunction="3way_34"/>
<trip id="162" depart="539.9946" fromJunction="3way_34" toJunction="4way_19"/>
<trip id="163" depart="543.3279" fromJunction="3way_23" toJunction="3way_31"/>
<trip id="164" depart="546.6612" fromJunction="3way_2" toJunction="3way_12"/>
<trip id="165" depart="549.9945" fromJunction="3way_3" toJunction="4way_15"/>
<trip id="166" depart="553.3278" fromJunction="3way_33" toJunction="4way_7"/>
<trip id="167" depart="556.6611" fromJunction="4way_22" toJunction="4way_19"/>
<trip id="168" depart="559.9944" fromJunction="3way_2" toJunction="4way_8"/>
<trip id="169" depart="563.3276999999999" fromJunction="4way_7" toJunction="3way_18"/>
<trip id="170" depart="566.661" fromJunction="4way_14" toJunction="4way_13"/>
<trip id="171" depart="569.9943" fromJunction="3way_11" toJunction="3way_34"/>
<trip id="172" depart="573.3276" fromJunction="4way_22" toJunction="3way_24"/>
<trip id="173" depart="576.6609" fromJunction="4way_10" toJunction="3way_17"/>
<trip id="174" depart="579.9942" fromJunction="3way_12" toJunction="4way_13"/>
<trip id="175" depart="583.3275" fromJunction="3way_12" toJunction="4way_10"/>
<trip id="176" depart="586.6608" fromJunction="3way_24" toJunction="4way_26"/>
<trip id="177" depart="589.9941" fromJunction="4way_20" toJunction="4way_10"/>
<trip id="178" depart="593.3274" fromJunction="3way_32" toJunction="4way_20"/>
<trip id="179" depart="596.6607" fromJunction="4way_8" toJunction="4way_9"/>
<trip id="180" depart="599.994" fromJunction="3way_17" toJunction="3way_29"/>
<trip id="181" depart="603.3273" fromJunction="4way_22" toJunction="4way_15"/>
<trip id="182" depart="606.6605999999999" fromJunction="4way_19" toJunction="3way_12"/>
<trip id="183" depart="609.9938999999999" fromJunction="3way_12" toJunction="4way_27"/>
<trip id="184" depart="613.3272" fromJunction="4way_19" toJunction="4way_22"/>
<trip id="185" depart="616.6605" fromJunction="4way_16" toJunction="4way_21"/>
<trip id="186" depart="619.9938" fromJunction="3way_17" toJunction="4way_21"/>
<trip id="187" depart="623.3271" fromJunction="3way_24" toJunction="4way_8"/>
<trip id="188" depart="626.6604" fromJunction="3way_18" toJunction="3way_3"/>
<trip id="189" depart="629.9937" fromJunction="4way_27" toJunction="3way_34"/>
<trip id="190" depart="633.327" fromJunction="4way_22" toJunction="3way_2"/>
<trip id="191" depart="636.6603" fromJunction="3way_17" toJunction="3way_1"/>
<trip id="192" depart="639.9936" fromJunction="4way_16" toJunction="3way_24"/>
<trip id="193" depart="643.3269" fromJunction="4way_22" toJunction="3way_4"/>
<trip id="194" depart="646.6602" fromJunction="3way_12" toJunction="4way_27"/>
<trip id="195" depart="649.9935" fromJunction="3way_29" toJunction="3way_32"/>
<trip id="196" depart="653.3267999999999" fromJunction="3way_2" toJunction="4way_25"/>
<trip id="197" depart="656.6600999999999" fromJunction="3way_18" toJunction="3way_1"/>
<trip id="198" depart="659.9934" fromJunction="3way_34" toJunction="3way_3"/>
<trip id="199" depart="663.3267" fromJunction="3way_34" toJunction="3way_29"/>
<trip id="200" depart="666.66" fromJunction="3way_1" toJunction="3way_11"/>
<trip id="201" depart="669.9933" fromJunction="4way_25" toJunction="3way_4"/>
<trip id="202" depart="673.3266" fromJunction="3way_17" toJunction="3way_18"/>
<trip id="203" depart="676.6599" fromJunction="3way_6" toJunction="4way_8"/>
<trip id="204" depart="679.9932" fromJunction="3way_3" toJunction="4way_28"/>
<trip id="205" depart="683.3265" fromJunction="3way_33" toJunction="4way_15"/>
<trip id="206" depart="686.6598" fromJunction="4way_14" toJunction="3way_29"/>
<trip id="207" depart="689.9931" fromJunction="4way_14" toJunction="3way_29"/>
<trip id="208" depart="693.3264" fromJunction="3way_18" toJunction="4way_7"/>
<trip id="209" depart="696.6596999999999" fromJunction="3way_33" toJunction="4way_13"/>
<trip id="210" depart="699.9929999999999" fromJunction="3way_18" toJunction="4way_20"/>
<trip id="211" depart="703.3263" fromJunction="4way_21" toJunction="3way_31"/>
<trip id="212" depart="706.6596" fromJunction="3way_2" toJunction="4way_16"/>
<trip id="213" depart="709.9929" fromJunction="3way_31" toJunction="3way_29"/>
<trip id="214" depart="713.3262" fromJunction="4way_28" toJunction="4way_21"/>
<trip id="215" depart="716.6595" fromJunction="4way_10" toJunction="4way_28"/>
<trip id="216" depart="719.9928" fromJunction="4way_28" toJunction="3way_33"/>
<trip id="217" depart="723.3261" fromJunction="3way_4" toJunction="3way_29"/>
<trip id="218" depart="726.6594" fromJunction="3way_29" toJunction="4way_22"/>
<trip id="219" depart="729.9927" fromJunction="3way_2" toJunction="4way_20"/>
<trip id="220" depart="733.326" fromJunction="4way_10" toJunction="4way_26"/>
<trip id="221" depart="736.6593" fromJunction="3way_24" toJunction="3way_34"/>
<trip id="222" depart="739.9926" fromJunction="4way_26" toJunction="3way_31"/>
<trip id="223" depart="743.3258999999999" fromJunction="3way_17" toJunction="3way_29"/>
<trip id="224" depart="746.6591999999999" fromJunction="3way_33" toJunction="3way_12"/>
<trip id="225" depart="749.9925" fromJunction="3way_29" toJunction="4way_21"/>
<trip id="226" depart="753.3258" fromJunction="4way_22" toJunction="4way_7"/>
<trip id="227" depart="756.6591" fromJunction="4way_27" toJunction="4way_8"/>
<trip id="228" depart="759.9924" fromJunction="4way_9" toJunction="4way_22"/>
<trip id="229" depart="763.3257" fromJunction="4way_22" toJunction="4way_20"/>
<trip id="230" depart="766.659" fromJunction="3way_12" toJunction="4way_28"/>
<trip id="231" depart="769.9923" fromJunction="3way_33" toJunction="3way_3"/>
<trip id="232" depart="773.3256" fromJunction="3way_18" toJunction="3way_11"/>
<trip id="233" depart="776.6589" fromJunction="4way_25" toJunction="3way_11"/>
<trip id="234" depart="779.9922" fromJunction="4way_10" toJunction="3way_24"/>
<trip id="235" depart="783.3255" fromJunction="4way_13" toJunction="4way_22"/>
<trip id="236" depart="786.6587999999999" fromJunction="4way_19" toJunction="3way_34"/>
<trip id="237" depart="789.9920999999999" fromJunction="3way_18" toJunction="4way_10"/>
<trip id="238" depart="793.3254" fromJunction="3way_34" toJunction="4way_13"/>
<trip id="239" depart="796.6587" fromJunction="3way_24" toJunction="3way_12"/>
<trip id="240" depart="799.992" fromJunction="4way_7" toJunction="3way_29"/>
<trip id="241" depart="803.3253" fromJunction="3way_31" toJunction="3way_33"/>
<trip id="242" depart="806.6586" fromJunction="4way_9" toJunction="4way_7"/>
<trip id="243" depart="809.9919" fromJunction="4way_16" toJunction="3way_32"/>
<trip id="244" depart="813.3252" fromJunction="3way_2" toJunction="4way_27"/>
<trip id="245" depart="816.6585" fromJunction="3way_12" toJunction="3way_34"/>
<trip id="246" depart="819.9918" fromJunction="3way_31" toJunction="3way_4"/>
<trip id="247" depart="823.3251" fromJunction="4way_14" toJunction="4way_26"/>
<trip id="248" depart="826.6584" fromJunction="4way_20" toJunction="4way_25"/>
<trip id="249" depart="829.9917" fromJunction="3way_32" toJunction="3way_23"/>
<trip id="250" depart="833.3249999999999" fromJunction="4way_10" toJunction="4way_14"/>
<trip id="251" depart="836.6582999999999" fromJunction="3way_33" toJunction="4way_13"/>
<trip id="252" depart="839.9916" fromJunction="4way_20" toJunction="3way_1"/>
<trip id="253" depart="843.3249" fromJunction="3way_31" toJunction="3way_1"/>
<trip id="254" depart="846.6582" fromJunction="4way_16" toJunction="4way_7"/>
<trip id="255" depart="849.9915" fromJunction="3way_24" toJunction="3way_3"/>
<trip id="256" depart="853.3248" fromJunction="3way_32" toJunction="3way_1"/>
<trip id="257" depart="856.6581" fromJunction="3way_34" toJunction="4way_25"/>
<trip id="258" depart="859.9914" fromJunction="3way_4" toJunction="3way_23"/>
<trip id="259" depart="863.3247" fromJunction="4way_20" toJunction="4way_19"/>
<trip id="260" depart="866.658" fromJunction="4way_22" toJunction="4way_14"/>
<trip id="261" depart="869.9913" fromJunction="4way_8" toJunction="3way_1"/>
<trip id="262" depart="873.3246" fromJunction="4way_19" toJunction="4way_25"/>
<trip id="263" depart="876.6578999999999" fromJunction="3way_1" toJunction="4way_22"/>
<trip id="264" depart="879.9911999999999" fromJunction="4way_21" toJunction="4way_20"/>
<trip id="265" depart="883.3245" fromJunction="3way_32" toJunction="4way_7"/>
<trip id="266" depart="886.6578" fromJunction="3way_4" toJunction="4way_15"/>
<trip id="267" depart="889.9911" fromJunction="4way_7" toJunction="3way_12"/>
<trip id="268" depart="893.3244" fromJunction="3way_3" toJunction="4way_20"/>
<trip id="269" depart="896.6577" fromJunction="3way_18" toJunction="3way_29"/>
<trip id="270" depart="899.991" fromJunction="4way_10" toJunction="4way_25"/>
<trip id="271" depart="903.3243" fromJunction="3way_11" toJunction="4way_25"/>
<trip id="272" depart="906.6576" fromJunction="4way_27" toJunction="4way_28"/>
<trip id="273" depart="909.9909" fromJunction="4way_16" toJunction="4way_7"/>
<trip id="274" depart="913.3242" fromJunction="4way_16" toJunction="4way_13"/>
<trip id="275" depart="916.6575" fromJunction="4way_22" toJunction="4way_21"/>
<trip id="276" depart="919.9908" fromJunction="3way_2" toJunction="4way_16"/>
<trip id="277" depart="923.3240999999999" fromJunction="3way_24" toJunction="3way_17"/>
<trip id="278" depart="926.6573999999999" fromJunction="3way_33" toJunction="4way_22"/>
<trip id="279" depart="929.9907" fromJunction="4way_10" toJunction="3way_17"/>
<trip id="280" depart="933.324" fromJunction="4way_16" toJunction="3way_12"/>
<trip id="281" depart="936.6573" fromJunction="4way_14" toJunction="3way_17"/>
<trip id="282" depart="939.9906" fromJunction="3way_3" toJunction="3way_12"/>
<trip id="283" depart="943.3239" fromJunction="3way_29" toJunction="4way_20"/>
<trip id="284" depart="946.6572" fromJunction="4way_16" toJunction="3way_2"/>
<trip id="285" depart="949.9905" fromJunction="4way_10" toJunction="4way_26"/>
<trip id="286" depart="953.3238" fromJunction="4way_7" toJunction="4way_14"/>
<trip id="287" depart="956.6571" fromJunction="4way_28" toJunction="3way_33"/>
<trip id="288" depart="959.9904" fromJunction="3way_6" toJunction="3way_31"/>
<trip id="289" depart="963.3237" fromJunction="4way_28" toJunction="3way_24"/>
<trip id="290" depart="966.6569999999999" fromJunction="3way_32" toJunction="3way_17"/>
<trip id="291" depart="969.9902999999999" fromJunction="3way_3" toJunction="4way_14"/>
<trip id="292" depart="973.3235999999999" fromJunction="3way_6" toJunction="4way_25"/>
<trip id="293" depart="976.6569" fromJunction="3way_29" toJunction="3way_33"/>
<trip id="294" depart="979.9902" fromJunction="3way_31" toJunction="4way_7"/>
<trip id="295" depart="983.3235" fromJunction="3way_32" toJunction="3way_12"/>
<trip id="296" depart="986.6568" fromJunction="3way_11" toJunction="4way_28"/>
<trip id="297" depart="989.9901" fromJunction="3way_32" toJunction="3way_4"/>
<trip id="298" depart="993.3234" fromJunction="4way_14" toJunction="4way_19"/>
<trip id="299" depart="996.6567" fromJunction="4way_28" toJunction="3way_24"/>
<trip id="300" depart="999.99" fromJunction="4way_26" toJunction="3way_31"/>
<trip id="301" depart="1003.3233" fromJunction="4way_21" toJunction="4way_8"/>
<trip id="302" depart="1006.6566" fromJunction="4way_10" toJunction="4way_28"/>
<trip id="303" depart="1009.9899" fromJunction="4way_20" toJunction="4way_9"/>
<trip id="304" depart="1013.3231999999999" fromJunction="3way_11" toJunction="3way_32"/>
<trip id="305" depart="1016.6564999999999" fromJunction="3way_29" toJunction="3way_3"/>
<trip id="306" depart="1019.9898" fromJunction="4way_7" toJunction="3way_18"/>
<trip id="307" depart="1023.3231" fromJunction="4way_22" toJunction="4way_9"/>
<trip id="308" depart="1026.6564" fromJunction="4way_26" toJunction="4way_19"/>
<trip id="309" depart="1029.9897" fromJunction="4way_16" toJunction="4way_27"/>
<trip id="310" depart="1033.3229999999999" fromJunction="3way_24" toJunction="4way_28"/>
<trip id="311" depart="1036.6562999999999" fromJunction="3way_11" toJunction="3way_24"/>
<trip id="312" depart="1039.9895999999999" fromJunction="3way_4" toJunction="4way_27"/>
<trip id="313" depart="1043.3229" fromJunction="4way_19" toJunction="3way_6"/>
<trip id="314" depart="1046.6562" fromJunction="3way_17" toJunction="3way_29"/>
<trip id="315" depart="1049.9895" fromJunction="3way_2" toJunction="4way_27"/>
<trip id="316" depart="1053.3228" fromJunction="3way_4" toJunction="3way_6"/>
<trip id="317" depart="1056.6561" fromJunction="4way_28" toJunction="3way_12"/>
<trip id="318" depart="1059.9894" fromJunction="4way_27" toJunction="3way_18"/>
<trip id="319" depart="1063.3227" fromJunction="3way_34" toJunction="3way_4"/>
<trip id="320" depart="1066.656" fromJunction="3way_31" toJunction="4way_14"/>
<trip id="321" depart="1069.9893" fromJunction="4way_8" toJunction="4way_20"/>
<trip id="322" depart="1073.3226" fromJunction="3way_18" toJunction="3way_24"/>
<trip id="323" depart="1076.6559" fromJunction="3way_3" toJunction="4way_25"/>
<trip id="324" depart="1079.9892" fromJunction="4way_8" toJunction="4way_21"/>
<trip id="325" depart="1083.3225" fromJunction="4way_13" toJunction="4way_26"/>
<trip id="326" depart="1086.6558" fromJunction="3way_24" toJunction="3way_4"/>
<trip id="327" depart="1089.9891" fromJunction="3way_32" toJunction="3way_24"/>
<trip id="328" depart="1093.3224" fromJunction="4way_26" toJunction="3way_1"/>
<trip id="329" depart="1096.6557" fromJunction="4way_25" toJunction="3way_4"/>
<trip id="330" depart="1099.989" fromJunction="4way_8" toJunction="4way_20"/>
<trip id="331" depart="1103.3223" fromJunction="3way_4" toJunction="4way_22"/>
<trip id="332" depart="1106.6556" fromJunction="3way_1" toJunction="4way_27"/>
<trip id="333" depart="1109.9889" fromJunction="3way_24" toJunction="4way_13"/>
<trip id="334" depart="1113.3222" fromJunction="3way_31" toJunction="4way_7"/>
<trip id="335" depart="1116.6555" fromJunction="3way_1" toJunction="3way_23"/>
<trip id="336" depart="1119.9888" fromJunction="4way_21" toJunction="4way_7"/>
<trip id="337" depart="1123.3220999999999" fromJunction="3way_29" toJunction="3way_31"/>
<trip id="338" depart="1126.6553999999999" fromJunction="3way_4" toJunction="3way_29"/>
<trip id="339" depart="1129.9886999999999" fromJunction="3way_3" toJunction="3way_34"/>
<trip id="340" depart="1133.322" fromJunction="4way_27" toJunction="3way_3"/>
<trip id="341" depart="1136.6553" fromJunction="4way_13" toJunction="3way_17"/>
<trip id="342" depart="1139.9886" fromJunction="3way_12" toJunction="4way_9"/>
<trip id="343" depart="1143.3219" fromJunction="3way_23" toJunction="3way_11"/>
<trip id="344" depart="1146.6552" fromJunction="4way_7" toJunction="3way_18"/>
<trip id="345" depart="1149.9885" fromJunction="4way_15" toJunction="3way_31"/>
<trip id="346" depart="1153.3218" fromJunction="4way_16" toJunction="4way_9"/>
<trip id="347" depart="1156.6551" fromJunction="4way_10" toJunction="3way_1"/>
<trip id="348" depart="1159.9884" fromJunction="4way_10" toJunction="3way_24"/>
<trip id="349" depart="1163.3217" fromJunction="4way_28" toJunction="4way_20"/>
<trip id="350" depart="1166.655" fromJunction="3way_31" toJunction="4way_9"/>
<trip id="351" depart="1169.9883" fromJunction="3way_24" toJunction="4way_7"/>
<trip id="352" depart="1173.3216" fromJunction="3way_34" toJunction="3way_31"/>
<trip id="353" depart="1176.6549" fromJunction="4way_14" toJunction="3way_6"/>
<trip id="354" depart="1179.9882" fromJunction="4way_7" toJunction="3way_34"/>
<trip id="355" depart="1183.3215" fromJunction="3way_17" toJunction="3way_4"/>
<trip id="356" depart="1186.6548" fromJunction="4way_28" toJunction="3way_2"/>
<trip id="357" depart="1189.9881" fromJunction="3way_17" toJunction="3way_1"/>
<trip id="358" depart="1193.3214" fromJunction="3way_3" toJunction="4way_25"/>
<trip id="359" depart="1196.6547" fromJunction="4way_26" toJunction="4way_10"/>
<trip id="360" depart="1199.988" fromJunction="4way_7" toJunction="4way_22"/>
<trip id="361" depart="1203.3213" fromJunction="4way_13" toJunction="3way_33"/>
<trip id="362" depart="1206.6546" fromJunction="4way_7" toJunction="4way_16"/>
<trip id="363" depart="1209.9879" fromJunction="4way_10" toJunction="3way_34"/>
<trip id="364" depart="1213.3211999999999" fromJunction="3way_1" toJunction="3way_31"/>
<trip id="365" depart="1216.6544999999999" fromJunction="3way_32" toJunction="3way_29"/>
<trip id="366" depart="1219.9877999999999" fromJunction="3way_12" toJunction="4way_27"/>
<trip id="367" depart="1223.3211" fromJunction="3way_32" toJunction="3way_12"/>
<trip id="368" depart="1226.6544" fromJunction="4way_22" toJunction="4way_10"/>
<trip id="369" depart="1229.9877" fromJunction="3way_24" toJunction="4way_28"/>
<trip id="370" depart="1233.321" fromJunction="4way_15" toJunction="4way_22"/>
<trip id="371" depart="1236.6543" fromJunction="3way_29" toJunction="4way_14"/>
<trip id="372" depart="1239.9876" fromJunction="3way_17" toJunction="3way_23"/>
<trip id="373" depart="1243.3209" fromJunction="3way_33" toJunction="4way_16"/>