<routes xmlns:xsi="http://www.w3.org/2001/XMLSchema-instance" xsi:noNamespaceSchemaLocation="http://sumo.dlr.de/xsd/routes_file.xsd">
<trip id="0" depart="0.0" fromJunction="4way_12" toJunction="4way_26"/>
<trip id="1" depart="0.1562" fromJunction="4way_26" toJunction="4way_11"/>
<trip id="2" depart="0.3124" fromJunction="4way_27" toJunction="4way_17"/>
<trip id="3" depart="0.4686" fromJunction="4way_53" toJunction="4way_25"/>
<trip id="4" depart="0.6248" fromJunction="3way_8" toJunction="4way_38"/>
<trip id="5" depart="0.781" fromJunction="4way_18" toJunction="4way_52"/>
<trip id="6" depart="0.9372" fromJunction="4way_22" toJunction="4way_42"/>
<trip id="7" depart="1.0934" fromJunction="3way_6" toJunction="3way_5"/>
<trip id="8" depart="1.2496" fromJunction="4way_21" toJunction="3way_2"/>
<trip id="9" depart="1.4058000000000002" fromJunction="4way_45" toJunction="4way_44"/>
<trip id="10" depart="1.562" fromJunction="4way_52" toJunction="4way_46"/>
<trip id="11" depart="1.7182" fromJunction="4way_44" toJunction="4way_33"/>
<trip id="12" depart="1.8744" fromJunction="4way_27" toJunction="3way_23"/>
<trip id="13" depart="2.0306" fromJunction="4way_30" toJunction="3way_31"/>
<trip id="14" depart="2.1868" fromJunction="4way_9" toJunction="4way_18"/>
<trip id="15" depart="2.343" fromJunction="4way_44" toJunction="3way_59"/>
<trip id="16" depart="2.4992" fromJunction="4way_42" toJunction="4way_33"/>
<trip id="17" depart="2.6554" fromJunction="4way_19" toJunction="3way_2"/>
<trip id="18" depart="2.8116000000000003" fromJunction="4way_19" toJunction="4way_11"/>
<trip id="19" depart="2.9678" fromJunction="4way_43" toJunction="4way_30"/>
<trip id="20" depart="3.124" fromJunction="4way_25" toJunction="3way_24"/>
<trip id="21" depart="3.2802000000000002" fromJunction="3way_4" toJunction="4way_51"/>
<trip id="22" depart="3.4364" fromJunction="3way_23" toJunction="3way_62"/>
<trip id="23" depart="3.5926" fromJunction="3way_24" toJunction="3way_48"/>
<trip id="24" depart="3.7488" fromJunction="4way_25" toJunction="4way_42"/>
<trip id="25" depart="3.9050000000000002" fromJunction="3way_15" toJunction="4way_54"/>
<trip id="26" depart="4.0612" fromJunction="3way_39" toJunction="3way_62"/>
<trip id="27" depart="4.2174000000000005" fromJunction="3way_59" toJunction="4way_35"/>
<trip id="28" depart="4.3736" fromJunction="3way_60" toJunction="4way_33"/>
<trip id="29" depart="4.5298" fromJunction="3way_15" toJunction="3way_39"/>
<trip id="30" depart="4.686" fromJunction="3way_31" toJunction="4way_35"/>
<trip id="31" depart="4.8422" fromJunction="3way_16" toJunction="3way_55"/>
<trip id="32" depart="4.9984" fromJunction="3way_6" toJunction="4way_21"/>
<trip id="33" depart="5.1546" fromJunction="3way_6" toJunction="4way_29"/>
<trip id="34" depart="5.3108" fromJunction="4way_41" toJunction="4way_46"/>
<trip id="35" depart="5.4670000000000005" fromJunction="4way_11" toJunction="4way_46"/>
<trip id="36" depart="5.623200000000001" fromJunction="3way_3" toJunction="4way_28"/>
<trip id="37" depart="5.7794" fromJunction="3way_23" toJunction="3way_58"/>
<trip id="38" depart="5.9356" fromJunction="3way_23" toJunction="3way_57"/>
<trip id="39" depart="6.0918" fromJunction="4way_9" toJunction="3way_40"/>
<trip id="40" depart="6.248" fromJunction="4way_51" toJunction="3way_4"/>
<trip id="41" depart="6.4042" fromJunction="3way_59" toJunction="4way_34"/>
<trip id="42" depart="6.5604000000000005" fromJunction="3way_6" toJunction="4way_18"/>
<trip id="43" depart="6.716600000000001" fromJunction="4way_22" toJunction="4way_42"/>
<trip id="44" depart="6.8728" fromJunction="4way_43" toJunction="3way_40"/>
<trip id="45" depart="7.029" fromJunction="4way_12" toJunction="3way_23"/>
<trip id="46" depart="7.1852" fromJunction="3way_47" toJunction="3way_57"/>
<trip id="47" depart="7.3414" fromJunction="3way_2" toJunction="4way_50"/>
<trip id="48" depart="7.4976" fromJunction="3way_1" toJunction="4way_21"/>
<trip id="49" depart="7.6538" fromJunction="3way_58" toJunction="4way_43"/>
<trip id="50" depart="7.8100000000000005" fromJunction="4way_38" toJunction="4way_28"/>
<trip id="51" depart="7.966200000000001" fromJunction="4way_42" toJunction="3way_60"/>
<trip id="52" depart="8.1224" fromJunction="4way_42" toJunction="4way_50"/>
<trip id="53" depart="8.2786" fromJunction="4way_38" toJunction="3way_61"/>
<trip id="54" depart="8.434800000000001" fromJunction="4way_29" toJunction="4way_25"/>
<trip id="55" depart="8.591000000000001" fromJunction="3way_57" toJunction="4way_51"/>
<trip id="56" depart="8.7472" fromJunction="3way_8" toJunction="4way_13"/>
<trip id="57" depart="8.9034" fromJunction="4way_42" toJunction="4way_45"/>
<trip id="58" depart="9.0596" fromJunction="4way_51" toJunction="4way_45"/>
<trip id="59" depart="9.2158" fromJunction="4way_10" toJunction="4way_20"/>
<trip id="60" depart="9.372" fromJunction="4way_27" toJunction="4way_38"/>
<trip id="61" depart="9.5282" fromJunction="4way_11" toJunction="4way_17"/>
<trip id="62" depart="9.6844" fromJunction="3way_48" toJunction="3way_2"/>
<trip id="63" depart="9.8406" fromJunction="3way_57" toJunction="4way_35"/>
<trip id="64" depart="9.9968" fromJunction="4way_17" toJunction="4way_19"/>
<trip id="65" depart="10.153" fromJunction="3way_57" toJunction="3way_31"/>
<trip id="66" depart="10.3092" fromJunction="4way_50" toJunction="4way_42"/>
<trip id="67" depart="10.4654" fromJunction="4way_35" toJunction="4way_42"/>
<trip id="68" depart="10.6216" fromJunction="4way_17" toJunction="4way_35"/>
<trip id="69" depart="10.777800000000001" fromJunction="3way_16" toJunction="4way_53"/>
<trip id="70" depart="10.934000000000001" fromJunction="4way_53" toJunction="4way_25"/>
<trip id="71" depart="11.090200000000001" fromJunction="4way_12" toJunction="4way_13"/>
<trip id="72" depart="11.246400000000001" fromJunction="4way_22" toJunction="3way_15"/>
<trip id="73" depart="11.4026" fromJunction="4way_54" toJunction="4way_12"/>
<trip id="74" depart="11.5588" fromJunction="4way_45" toJunction="3way_31"/>
<trip id="75" depart="11.715" fromJunction="4way_11" toJunction="3way_39"/>
<trip id="76" depart="11.8712" fromJunction="4way_29" toJunction="3way_23"/>
<trip id="77" depart="12.0274" fromJunction="4way_42" toJunction="4way_13"/>
<trip id="78" depart="12.1836" fromJunction="3way_5" toJunction="4way_9"/>
<trip id="79" depart="12.3398" fromJunction="4way_33" toJunction="4way_51"/>
<trip id="80" depart="12.496" fromJunction="4way_37" toJunction="4way_20"/>
<trip id="81" depart="12.6522" fromJunction="4way_37" toJunction="4way_46"/>
<trip id="82" depart="12.8084" fromJunction="3way_24" toJunction="3way_1"/>
<trip id="83" depart="12.9646" fromJunction="3way_47" toJunction="4way_20"/>
<trip id="84" depart="13.120800000000001" fromJunction="3way_4" toJunction="4way_18"/>
<trip id="85" depart="13.277000000000001" fromJunction="3way_2" toJunction="3way_55"/>
<trip id="86" depart="13.433200000000001" fromJunction="3way_61" toJunction="4way_52"/>
<trip id="87" depart="13.589400000000001" fromJunction="4way_22" toJunction="3way_32"/>
<trip id="88" depart="13.7456" fromJunction="3way_2" toJunction="4way_12"/>
<trip id="89" depart="13.9018" fromJunction="4way_19" toJunction="3way_39"/>
<trip id="90" depart="14.058" fromJunction="3way_60" toJunction="4way_42"/>
<trip id="91" depart="14.2142" fromJunction="4way_11" toJunction="4way_30"/>
<trip id="92" depart="14.3704" fromJunction="4way_50" toJunction="4way_26"/>
<trip id="93" depart="14.5266" fromJunction="3way_48" toJunction="4way_20"/>
<trip id="94" depart="14.6828" fromJunction="3way_62" toJunction="3way_8"/>
<trip id="95" depart="14.839" fromJunction="4way_30" toJunction="3way_55"/>
<trip id="96" depart="14.9952" fromJunction="4way_49" toJunction="4way_28"/>
<trip id="97" depart="15.1514" fromJunction="3way_59" toJunction="3way_61"/>
<trip id="98" depart="15.3076" fromJunction="4way_25" toJunction="3way_4"/>
<trip id="99" depart="15.4638" fromJunction="4way_51" toJunction="3way_48"/>
<trip id="100" depart="15.620000000000001" fromJunction="3way_47" toJunction="3way_16"/>
<trip id="101" depart="15.776200000000001" fromJunction="3way_5" toJunction="3way_2"/>
<trip id="102" depart="15.932400000000001" fromJunction="4way_33" toJunction="4way_43"/>
<trip id="103" depart="16.0886" fromJunction="4way_53" toJunction="4way_26"/>
<trip id="104" depart="16.2448" fromJunction="3way_61" toJunction="4way_54"/>
<trip id="105" depart="16.401" fromJunction="3way_59" toJunction="4way_35"/>
<trip id="106" depart="16.5572" fromJunction="4way_36" toJunction="3way_2"/>
<trip id="107" depart="16.7134" fromJunction="3way_8" toJunction="3way_40"/>
<trip id="108" depart="16.869600000000002" fromJunction="4way_21" toJunction="4way_50"/>
<trip id="109" depart="17.0258" fromJunction="4way_45" toJunction="4way_19"/>
<trip id="110" depart="17.182000000000002" fromJunction="4way_52" toJunction="3way_58"/>
<trip id="111" depart="17.3382" fromJunction="4way_38" toJunction="3way_55"/>
<trip id="112" depart="17.4944" fromJunction="3way_62" toJunction="4way_51"/>
<trip id="113" depart="17.6506" fromJunction="4way_20" toJunction="4way_30"/>
<trip id="114" depart="17.8068" fromJunction="3way_62" toJunction="3way_59"/>
<trip id="115" depart="17.963" fromJunction="3way_2" toJunction="4way_18"/>
<trip id="116" depart="18.1192" fromJunction="4way_17" toJunction="3way_62"/>
<trip id="117" depart="18.2754" fromJunction="4way_33" toJunction="3way_16"/>
<trip id="118" depart="18.4316" fromJunction="4way_50" toJunction="3way_58"/>
<trip id="119" depart="18.5878" fromJunction="3way_23" toJunction="4way_37"/>
<trip id="120" depart="18.744" fromJunction="3way_23" toJunction="4way_18"/>
<trip id="121" depart="18.9002" fromJunction="3way_8" toJunction="4way_20"/>
<trip id="122" depart="19.0564" fromJunction="3way_47" toJunction="4way_34"/>
<trip id="123" depart="19.212600000000002" fromJunction="4way_49" toJunction="3way_31"/>
<trip id="124" depart="19.3688" fromJunction="4way_30" toJunction="3way_24"/>
<trip id="125" depart="19.525000000000002" fromJunction="4way_28" toJunction="4way_36"/>
<trip id="126" depart="19.6812" fromJunction="3way_6" toJunction="4way_14"/>
<trip id="127" depart="19.837400000000002" fromJunction="4way_50" toJunction="4way_34"/>
<trip id="128" depart="19.9936" fromJunction="3way_57" toJunction="4way_38"/>
<trip id="129" depart="20.1498" fromJunction="3way_15" toJunction="3way_60"/>
<trip id="130" depart="20.306" fromJunction="4way_22" toJunction="3way_1"/>
<trip id="131" depart="20.4622" fromJunction="4way_52" toJunction="4way_43"/>
<trip id="132" depart="20.6184" fromJunction="4way_50" toJunction="3way_58"/>
<trip id="133" depart="20.7746" fromJunction="4way_49" toJunction="3way_4"/>
<trip id="134" depart="20.9308" fromJunction="4way_45" toJunction="4way_46"/>
<trip id="135" depart="21.087" fromJunction="4way_38" toJunction="3way_32"/>
<trip id="136" depart="21.2432" fromJunction="4way_30" toJunction="3way_61"/>
<trip id="137" depart="21.3994" fromJunction="4way_52" toJunction="4way_30"/>
<trip id="138" depart="21.555600000000002" fromJunction="4way_45" toJunction="4way_19"/>
<trip id="139" depart="21.7118" fromJunction="4way_29" toJunction="3way_57"/>
<trip id="140" depart="21.868000000000002" fromJunction="3way_1" toJunction="4way_19"/>
<trip id="141" depart="22.0242" fromJunction="3way_31" toJunction="3way_32"/>
<trip id="142" depart="22.180400000000002" fromJunction="4way_41" toJunction="4way_46"/>
<trip id="143" depart="22.3366" fromJunction="4way_27" toJunction="4way_49"/>
<trip id="144" depart="22.492800000000003" fromJunction="3way_31" toJunction="3way_16"/>
<trip id="145" depart="22.649" fromJunction="3way_55" toJunction="4way_21"/>
<trip id="146" depart="22.8052" fromJunction="3way_61" toJunction="4way_10"/>
<trip id="147" depart="22.9614" fromJunction="4way_37" toJunction="3way_6"/>
<trip id="148" depart="23.1176" fromJunction="4way_38" toJunction="4way_46"/>
<trip id="149" depart="23.2738" fromJunction="4way_44" toJunction="4way_14"/>
<trip id="150" depart="23.43" fromJunction="3way_5" toJunction="3way_40"/>
<trip id="151" depart="23.5862" fromJunction="3way_61" toJunction="4way_9"/>
<trip id="152" depart="23.7424" fromJunction="3way_4" toJunction="3way_23"/>
<trip id="153" depart="23.898600000000002" fromJunction="3way_1" toJunction="4way_20"/>
<trip id="154" depart="24.0548" fromJunction="3way_31" toJunction="4way_44"/>
<trip id="155" depart="24.211000000000002" fromJunction="3way_6" toJunction="3way_5"/>
<trip id="156" depart="24.3672" fromJunction="3way_60" toJunction="4way_43"/>
<trip id="157" depart="24.523400000000002" fromJunction="4way_34" toJunction="4way_17"/>
<trip id="158" depart="24.6796" fromJunction="4way_20" toJunction="4way_37"/>
<trip id="159" depart="24.835800000000003" fromJunction="3way_23" toJunction="3way_58"/>
<trip id="160" depart="24.992" fromJunction="3way_48" toJunction="3way_4"/>
<trip id="161" depart="25.1482" fromJunction="4way_33" toJunction="3way_59"/>
<trip id="162" depart="25.3044" fromJunction="4way_51" toJunction="4way_43"/>
<trip id="163" depart="25.4606" fromJunction="3way_16" toJunction="3way_57"/>
<trip id="164" depart="25.6168" fromJunction="4way_52" toJunction="3way_47"/>
<trip id="165" depart="25.773" fromJunction="4way_51" toJunction="3way_4"/>
<trip id="166" depart="25.9292" fromJunction="3way_16" toJunction="3way_59"/>
<trip id="167" depart="26.0854" fromJunction="3way_58" toJunction="4way_50"/>
<trip id="168" depart="26.241600000000002" fromJunction="3way_55" toJunction="3way_16"/>
<trip id="169" depart="26.3978" fromJunction="3way_3" toJunction="4way_33"/>
<trip id="170" depart="26.554000000000002" fromJunction="3way_5" toJunction="4way_52"/>
<trip id="171" depart="26.7102" fromJunction="3way_48" toJunction="4way_18"/>
<trip id="172" depart="26.866400000000002" fromJunction="4way_38" toJunction="4way_42"/>
<trip id="173" depart="27.0226" fromJunction="3way_3" toJunction="4way_27"/>
<trip id="174" depart="27.178800000000003" fromJunction="4way_10" toJunction="4way_17"/>
<trip id="175" depart="27.335" fromJunction="4way_43" toJunction="4way_26"/>
<trip id="176" depart="27.4912" fromJunction="3way_23" toJunction="3way_58"/>
<trip id="177" depart="27.6474" fromJunction="4way_38" toJunction="3way_8"/>
<trip id="178" depart="27.8036" fromJunction="4way_14" toJunction="3way_55"/>
<trip id="179" depart="27.9598" fromJunction="4way_33" toJunction="4way_26"/>
<trip id="180" depart="28.116" fromJunction="4way_33" toJunction="4way_45"/>
<trip id="181" depart="28.2722" fromJunction="3way_8" toJunction="4way_20"/>
<trip id="182" depart="28.4284" fromJunction="4way_51" toJunction="4way_14"/>
<trip id="183" depart="28.584600000000002" fromJunction="3way_40" toJunction="4way_51"/>
<trip id="184" depart="28.7408" fromJunction="4way_27" toJunction="4way_36"/>
<trip id="185" depart="28.897000000000002" fromJunction="3way_39" toJunction="3way_60"/>
<trip id="186" depart="29.0532" fromJunction="4way_38" toJunction="4way_52"/>
<trip id="187" depart="29.209400000000002" fromJunction="4way_50" toJunction="4way_33"/>
<trip id="188" depart="29.3656" fromJunction="4way_33" toJunction="4way_37"/>
<trip id="189" depart="29.521800000000002" fromJunction="4way_42" toJunction="4way_38"/>
<trip id="190" depart="29.678" fromJunction="4way_14" toJunction="4way_21"/>
<trip id="191" depart="29.834200000000003" fromJunction="3way_39" toJunction="4way_13"/>
<trip id="192" depart="29.9904" fromJunction="3way_8" toJunction="4way_19"/>
<trip id="193" depart="30.1466" fromJunction="4way_17" toJunction="3way_4"/>
<trip id="194" depart="30.3028" fromJunction="4way_29" toJunction="3way_59"/>
<trip id="195" depart="30.459" fromJunction="4way_38" toJunction="3way_2"/>
<trip id="196" depart="30.6152" fromJunction="3way_55" toJunction="3way_1"/>
<trip id="197" depart="30.7714" fromJunction="4way_22" toJunction="4way_9"/>
<trip id="198" depart="30.9276" fromJunction="4way_30" toJunction="3way_6"/>
<trip id="199" depart="31.0838" fromJunction="4way_33" toJunction="4way_45"/>
<trip id="200" depart="31.240000000000002" fromJunction="3way_61" toJunction="3way_40"/>
<trip id="201" depart="31.3962" fromJunction="3way_2" toJunction="4way_11"/>
<trip id="202" depart="31.552400000000002" fromJunction="4way_17" toJunction="3way_1"/>
<trip id="203" depart="31.7086" fromJunction="3way_59" toJunction="3way_5"/>
<trip id="204" depart="31.864800000000002" fromJunction="3way_59" toJunction="3way_61"/>
<trip id="205" depart="32.021" fromJunction="3way_1" toJunction="3way_23"/>
<trip id="206" depart="32.1772" fromJunction="4way_19" toJunction="3way_15"/>
<trip id="207" depart="32.333400000000005" fromJunction="4way_54" toJunction="4way_46"/>
<trip id="208" depart="32.4896" fromJunction="3way_39" toJunction="4way_9"/>
<trip id="209" depart="32.6458" fromJunction="4way_49" toJunction="4way_27"/>
<trip id="210" depart="32.802" fromJunction="3way_4" toJunction="4way_54"/>
<trip id="211" depart="32.9582" fromJunction="3way_57" toJunction="4way_44"/>
<trip id="212" depart="33.1144" fromJunction="4way_35" toJunction="3way_60"/>
<trip id="213" depart="33.2706" fromJunction="4way_35" toJunction="3way_60"/>
<trip id="214" depart="33.4268" fromJunction="4way_17" toJunction="4way_18"/>
<trip id="215" depart="33.583" fromJunction="3way_57" toJunction="4way_34"/>
<trip id="216" depart="33.739200000000004" fromJunction="4way_9" toJunction="4way_12"/>
<trip id="217" depart="33.8954" fromJunction="4way_21" toJunction="3way_24"/>
<trip id="218" depart="34.0516" fromJunction="3way_3" toJunction="4way_22"/>
<trip id="219" depart="34.2078" fromJunction="3way_32" toJunction="3way_61"/>
<trip id="220" depart="34.364000000000004" fromJunction="4way_54" toJunction="4way_13"/>
<trip id="221" depart="34.5202" fromJunction="4way_14" toJunction="4way_46"/>
<trip id="222" depart="34.6764" fromJunction="4way_54" toJunction="3way_57"/>
<trip id="223" depart="34.8326" fromJunction="3way_15" toJunction="3way_60"/>
<trip id="224" depart="34.9888" fromJunction="3way_60" toJunction="4way_38"/>
<trip id="225" depart="35.145" fromJunction="3way_4" toJunction="4way_51"/>
<trip id="226" depart="35.3012" fromJunction="4way_45" toJunction="4way_20"/>
<trip id="227" depart="35.4574" fromJunction="3way_16" toJunction="3way_58"/>
<trip id="228" depart="35.6136" fromJunction="4way_28" toJunction="3way_16"/>
<trip id="229" depart="35.769800000000004" fromJunction="3way_47" toJunction="3way_60"/>
<trip id="230" depart="35.926" fromJunction="3way_48" toJunction="4way_25"/>
<trip id="231" depart="36.0822" fromJunction="3way_60" toJunction="4way_29"/>
<trip id="232" depart="36.2384" fromJunction="4way_30" toJunction="4way_10"/>
<trip id="233" depart="36.394600000000004" fromJunction="4way_45" toJunction="4way_27"/>
<trip id="234" depart="36.5508" fromJunction="4way_36" toJunction="4way_30"/>
<trip id="235" depart="36.707" fromJunction="4way_46" toJunction="4way_51"/>
<trip id="236" depart="36.8632" fromJunction="4way_33" toJunction="4way_54"/>
<trip id="237" depart="37.019400000000005" fromJunction="3way_57" toJunction="3way_5"/>
<trip id="238" depart="37.1756" fromJunction="4way_17" toJunction="3way_39"/>
<trip id="239" depart="37.3318" fromJunction="4way_11" toJunction="3way_23"/>
<trip id="240" depart="37.488" fromJunction="4way_53" toJunction="3way_16"/>
<trip id="241" depart="37.6442" fromJunction="4way_26" toJunction="4way_46"/>
<trip id="242" depart="37.8004" fromJunction="4way_50" toJunction="3way_58"/>
<trip id="243" depart="37.9566" fromJunction="4way_9" toJunction="4way_53"/>
<trip id="244" depart="38.1128" fromJunction="3way_58" toJunction="4way_34"/>
<trip id="245" depart="38.269" fromJunction="4way_9" toJunction="4way_33"/>
<trip id="246" depart="38.425200000000004" fromJunction="4way_10" toJunction="3way_60"/>
<trip id="247" depart="38.5814" fromJunction="3way_16" toJunction="3way_48"/>
<trip id="248" depart="38.7376" fromJunction="4way_36" toJunction="4way_18"/>
<trip id="249" depart="38.8938" fromJunction="4way_22" toJunction="3way_32"/>
<trip id="250" depart="39.050000000000004" fromJunction="3way_3" toJunction="4way_37"/>
<trip id="251" depart="39.2062" fromJunction="4way_25" toJunction="3way_59"/>
<trip id="252" depart="39.3624" fromJunction="3way_32" toJunction="3way_15"/>
<trip id="253" depart="39.5186" fromJunction="4way_43" toJunction="4way_28"/>
<trip id="254" depart="39.674800000000005" fromJunction="4way_12" toJunction="4way_19"/>
<trip id="255" depart="39.831" fromJunction="3way_32" toJunction="3way_62"/>
<trip id="256" depart="39.9872" fromJunction="4way_45" toJunction="4way_43"/>
<trip id="257" depart="40.1434" fromJunction="3way_58" toJunction="4way_26"/>
<trip id="258" depart="40.2996" fromJunction="4way_12" toJunction="3way_2"/>
<trip id="259" depart="40.4558" fromJunction="3way_16" toJunction="3way_1"/>
<trip id="260" depart="40.612" fromJunction="4way_22" toJunction="4way_18"/>
<trip id="261" depart="40.7682" fromJunction="4way_9" toJunction="3way_6"/>
<trip id="262" depart="40.9244" fromJunction="3way_32" toJunction="3way_2"/>
<trip id="263" depart="41.080600000000004" fromJunction="3way_58" toJunction="4way_19"/>
<trip id="264" depart="41.2368" fromJunction="3way_15" toJunction="3way_62"/>
<trip id="265" depart="41.393" fromJunction="4way_51" toJunction="4way_42"/>
<trip id="266" depart="41.5492" fromJunction="4way_30" toJunction="4way_43"/>
<trip id="267" depart="41.705400000000004" fromJunction="4way_27" toJunction="3way_1"/>
<trip id="268" depart="41.8616" fromJunction="4way_50" toJunction="4way_11"/>
<trip id="269" depart="42.0178" fromJunction="3way_2" toJunction="4way_38"/>
<trip id="270" depart="42.174" fromJunction="4way_13" toJunction="4way_51"/>
<trip id="271" depart="42.330200000000005" fromJunction="3way_32" toJunction="4way_10"/>
<trip id="272" depart="42.4864" fromJunction="3way_6" toJunction="4way_52"/>
<trip id="273" depart="42.6426" fromJunction="4way_18" toJunction="4way_25"/>
<trip id="274" depart="42.7988" fromJunction="3way_6" toJunction="4way_51"/>
<trip id="275" depart="42.955" fromJunction="4way_9" toJunction="3way_61"/>
<trip id="276" depart="43.111200000000004" fromJunction="4way_53" toJunction="4way_19"/>
<trip id="277" depart="43.2674" fromJunction="3way_31" toJunction="4way_19"/>
<trip id="278" depart="43.4236" fromJunction="4way_45" toJunction="4way_46"/>
<trip id="279" depart="43.5798" fromJunction="4way_22" toJunction="4way_10"/>
<trip id="280" depart="43.736000000000004" fromJunction="4way_22" toJunction="4way_26"/>
<trip id="281" depart="43.8922" fromJunction="4way_46" toJunction="4way_21"/>
<trip id="282" depart="44.0484" fromJunction="3way_3" toJunction="4way_22"/>
<trip id="283" depart="44.2046" fromJunction="3way_8" toJunction="3way_47"/>
<trip id="284" depart="44.360800000000005" fromJunction="3way_48" toJunction="4way_38"/>
<trip id="285" depart="44.517" fromJunction="4way_53" toJunction="3way_39"/>
<trip id="286" depart="44.6732" fromJunction="4way_14" toJunction="4way_25"/>
<trip id="287" depart="44.8294" fromJunction="4way_35" toJunction="3way_39"/>
<trip id="288" depart="44.985600000000005" fromJunction="3way_5" toJunction="4way_25"/>
<trip id="289" depart="45.1418" fromJunction="3way_60" toJunction="4way_51"/>
<trip id="290" depart="45.298" fromJunction="3way_4" toJunction="3way_3"/>
<trip id="291" depart="45.4542" fromJunction="4way_14" toJunction="3way_4"/>
<trip id="292" depart="45.6104" fromJunction="4way_53" toJunction="4way_28"/>
<trip id="293" depart="45.766600000000004" fromJunction="4way_18" toJunction="4way_43"/>
<trip id="294" depart="45.9228" fromJunction="4way_54" toJunction="3way_48"/>
<trip id="295" depart="46.079" fromJunction="4way_41" toJunction="3way_24"/>
<trip id="296" depart="46.2352" fromJunction="4way_46" toJunction="3way_16"/>
<trip id="297" depart="46.391400000000004" fromJunction="3way_40" toJunction="3way_47"/>
<trip id="298" depart="46.5476" fromJunction="3way_4" toJunction="4way_43"/>
<trip id="299" depart="46.7038" fromJunction="4way_41" toJunction="4way_11"/>
<trip id="300" depart="46.86" fromJunction="3way_60" toJunction="3way_57"/>
<trip id="301" depart="47.016200000000005" fromJunction="3way_16" toJunction="4way_10"/>
<trip id="302" depart="47.1724" fromJunction="3way_32" toJunction="4way_33"/>
<trip id="303" depart="47.3286" fromJunction="3way_31" toJunction="4way_46"/>
<trip id="304" depart="47.4848" fromJunction="3way_32" toJunction="3way_6"/>
<trip id="305" depart="47.641" fromJunction="4way_35" toJunction="4way_50"/>
<trip id="306" depart="47.797200000000004" fromJunction="4way_54" toJunction="3way_8"/>
<trip id="307" depart="47.9534" fromJunction="4way_20" toJunction="3way_24"/>
<trip id="308" depart="48.1096" fromJunction="4way_13" toJunction="4way_27"/>
<trip id="309" depart="48.2658" fromJunction="4way_53" toJunction="4way_46"/>
<trip id="310" depart="48.422000000000004" fromJunction="4way_51" toJunction="4way_36"/>
<trip id="311" depart="48.5782" fromJunction="3way_31" toJunction="3way_32"/>
<trip id="312" depart="48.7344" fromJunction="3way_60" toJunction="3way_4"/>
<trip id="313" depart="48.8906" fromJunction="4way_18" toJunction="4way_17"/>
<trip id="314" depart="49.046800000000005" fromJunction="4way_38" toJunction="4way_44"/>
<trip id="315" depart="49.203" fromJunction="3way_15" toJunction="3way_23"/>
<trip id="316" depart="49.3592" fromJunction="4way_28" toJunction="4way_50"/>
<trip id="317" depart="49.5154" fromJunction="4way_30" toJunction="4way_29"/>
<trip id="318" depart="49.671600000000005" fromJunction="3way_8" toJunction="4way_54"/>
<trip id="319" depart="49.8278" fromJunction="3way_31" toJunction="3way_16"/>
<trip id="320" depart="49.984" fromJunction="4way_35" toJunction="4way_51"/>
<trip id="321" depart="50.1402" fromJunction="3way_6" toJunction="4way_37"/>
<trip id="322" depart="50.2964" fromJunction="4way_42" toJunction="4way_49"/>
<trip id="323" depart="50.452600000000004" fromJunction="3way_47" toJunction="3way_60"/>
<trip id="324" depart="50.6088" fromJunction="3way_4" toJunction="4way_37"/>
<trip id="325" depart="50.765" fromJunction="3way_15" toJunction="4way_41"/>
<trip id="326" depart="50.9212" fromJunction="4way_46" toJunction="4way_33"/>
<trip id="327" depart="51.077400000000004" fromJunction="4way_37" toJunction="4way_17"/>
<trip id="328" depart="51.2336" fromJunction="3way_58" toJunction="3way_23"/>
<trip id="329" depart="51.3898" fromJunction="3way_8" toJunction="4way_9"/>
<trip id="330" depart="51.546" fromJunction="3way_32" toJunction="4way_43"/>
<trip id="331" depart="51.702200000000005" fromJunction="4way_27" toJunction="4way_12"/>
<trip id="332" depart="51.8584" fromJunction="4way_17" toJunction="3way_8"/>
<trip id="333" depart="52.0146" fromJunction="3way_5" toJunction="4way_11"/>
<trip id="334" depart="52.1708" fromJunction="4way_35" toJunction="4way_21"/>
<trip id="335" depart="52.327000000000005" fromJunction="4way_26" toJunction="4way_20"/>
<trip id="336" depart="52.483200000000004" fromJunction="4way_9" toJunction="3way_15"/>
<trip id="337" depart="52.6394" fromJunction="3way_40" toJunction="4way_9"/>
<trip id="338" depart="52.7956" fromJunction="4way_28" toJunction="3way_2"/>
<trip id="339" depart="52.9518" fromJunction="4way_11" toJunction="3way_15"/>
<trip id="340" depart="53.108000000000004" fromJunction="4way_27" toJunction="4way_12"/>
<trip id="341" depart="53.2642" fromJunction="3way_15" toJunction="4way_38"/>
<trip id="342" depart="53.4204" fromJunction="3way_2" toJunction="4way_45"/>
<trip id="343" depart="53.5766" fromJunction="4way_9" toJunction="4way_26"/>
<trip id="344" depart="53.732800000000005" fromJunction="3way_24" toJunction="4way_18"/>
<trip id="345" depart="53.889" fromJunction="3way_2" toJunction="3way_55"/>
<trip id="346" depart="54.0452" fromJunction="4way_29" toJunction="4way_18"/>
<trip id="347" depart="54.2014" fromJunction="3way_61" toJunction="3way_16"/>
<trip id="348" depart="54.357600000000005" fromJunction="3way_6" toJunction="3way_5"/>
<trip id="349" depart="54.5138" fromJunction="3way_15" toJunction="3way_61"/>
<trip id="350" depart="54.67" fromJunction="3way_4" toJunction="3way_59"/>
<trip id="351" depart="54.8262" fromJunction="4way_37" toJunction="3way_4"/>
<trip id="352" depart="54.9824" fromJunction="4way_34" toJunction="3way_39"/>
<trip id="353" depart="55.138600000000004" fromJunction="4way_33" toJunction="4way_44"/>
<trip id="354" depart="55.2948" fromJunction="3way_55" toJunction="3way_39"/>
<trip id="355" depart="55.451" fromJunction="4way_18" toJunction="4way_17"/>
<trip id="356" depart="55.6072" fromJunction="4way_44" toJunction="3way_32"/>
<trip id="357" depart="55.763400000000004" fromJunction="4way_22" toJunction="4way_36"/>
<trip id="358" depart="55.9196" fromJunction="4way_53" toJunction="3way_2"/>
<trip id="359" depart="56.0758" fromJunction="4way_45" toJunction="3way_8"/>
<trip id="360" depart="56.232" fromJunction="4way_54" toJunction="4way_51"/>
<trip id="361" depart="56.388200000000005" fromJunction="3way_24" toJunction="4way_36"/>
<trip id="362" depart="56.5444" fromJunction="3way_16" toJunction="4way_10"/>
<trip id="363" depart="56.7006" fromJunction="3way_59" toJunction="3way_24"/>
<trip id="364" depart="56.8568" fromJunction="4way_43" toJunction="4way_49"/>
<trip id="365" depart="57.013000000000005" fromJunction="4way_18" toJunction="3way_58"/>
<trip id="366" depart="57.169200000000004" fromJunction="3way_39" toJunction="3way_23"/>
<trip id="367" depart="57.3254" fromJunction="4way_46" toJunction="3way_3"/>
<trip id="368" depart="57.4816" fromJunction="3way_47" toJunction="3way_1"/>
<trip id="369" depart="57.6378" fromJunction="3way_5" toJunction="4way_11"/>
<trip id="370" depart="57.794000000000004" fromJunction="4way_20" toJunction="4way_45"/>
<trip id="371" depart="57.9502" fromJunction="4way_10" toJunction="4way_38"/>
<trip id="372" depart="58.1064" fromJunction="4way_26" toJunction="3way_48"/>
<trip id="373" depart="58.2626" fromJunction="4way_18" toJunction="4way_22"/>