<routes xmlns:xsi="http://www.w3.org/2001/XMLSchema-instance" xsi:noNamespaceSchemaLocation="http://sumo.dlr.de/xsd/routes_file.xsd">
<trip id="0" depart="0.0" fromJunction="4way_54" toJunction="4way_81"/>
<trip id="1" depart="0.1481" fromJunction="4way_66" toJunction="4way_67"/>
<trip id="2" depart="0.2962" fromJunction="4way_202" toJunction="4way_49"/>
<trip id="3" depart="0.44430000000000003" fromJunction="4way_57" toJunction="4way_94"/>
<trip id="4" depart="0.5924" fromJunction="4way_108" toJunction="4way_88"/>
<trip id="5" depart="0.7405" fromJunction="4way_200" toJunction="4way_100"/>
<trip id="6" depart="0.8886000000000001" fromJunction="4way_162" toJunction="4way_141"/>
<trip id="7" depart="1.0367000000000002" fromJunction="3way_119" toJunction="3way_59"/>
<trip id="8" depart="1.1848" fromJunction="4way_56" toJunction="3way_5"/>
<trip id="9" depart="1.3329" fromJunction="4way_176" toJunction="4way_55"/>
<trip id="10" depart="1.481" fromJunction="4way_130" toJunction="4way_148"/>
<trip id="11" depart="1.6291000000000002" fromJunction="4way_70" toJunction="4way_169"/>
<trip id="12" depart="1.7772000000000001" fromJunction="4way_187" toJunction="3way_223"/>
<trip id="13" depart="1.9253" fromJunction="4way_28" toJunction="3way_218"/>
<trip id="14" depart="2.0734000000000004" fromJunction="4way_19" toJunction="4way_185"/>
<trip id="15" depart="2.2215000000000003" fromJunction="4way_55" toJunction="4way_106"/>
<trip id="16" depart="2.3696" fromJunction="4way_141" toJunction="4way_154"/>
<trip id="17" depart="2.5177" fromJunction="4way_112" toJunction="3way_5"/>
<trip id="18" depart="2.6658" fromJunction="4way_112" toJunction="4way_97"/>
<trip id="19" depart="2.8139000000000003" fromJunction="4way_128" toJunction="4way_28"/>
<trip id="20" depart="2.962" fromJunction="4way_94" toJunction="4way_33"/>
<trip id="21" depart="3.1101" fromJunction="3way_29" toJunction="4way_188"/>
<trip id="22" depart="3.2582000000000004" fromJunction="4way_98" toJunction="4way_83"/>
<trip id="23" depart="3.4063000000000003" fromJunction="3way_221" toJunction="3way_90"/>
<trip id="24" depart="3.5544000000000002" fromJunction="4way_48" toJunction="4way_77"/>
<trip id="25" depart="3.7025" fromJunction="4way_94" toJunction="4way_156"/>
<trip id="26" depart="3.8506" fromJunction="3way_164" toJunction="4way_178"/>
<trip id="27" depart="3.9987000000000004" fromJunction="3way_214" toJunction="3way_90"/>
<trip id="28" depart="4.146800000000001" fromJunction="4way_61" toJunction="4way_38"/>
<trip id="29" depart="4.2949" fromJunction="4way_46" toJunction="4way_199"/>
<trip id="30" depart="4.4430000000000005" fromJunction="3way_194" toJunction="3way_214"/>
<trip id="31" depart="4.5911" fromJunction="3way_219" toJunction="4way_53"/>
<trip id="32" depart="4.7392" fromJunction="4way_63" toJunction="3way_135"/>
<trip id="33" depart="4.887300000000001" fromJunction="3way_149" toJunction="4way_205"/>
<trip id="34" depart="5.0354" fromJunction="3way_149" toJunction="4way_71"/>
<trip id="35" depart="5.1835" fromJunction="4way_199" toJunction="4way_133"/>
<trip id="36" depart="5.3316" fromJunction="4way_67" toJunction="4way_133"/>
<trip id="37" depart="5.4797" fromJunction="3way_9" toJunction="4way_129"/>
<trip id="38" depart="5.627800000000001" fromJunction="3way_223" toJunction="4way_166"/>
<trip id="39" depart="5.7759" fromJunction="3way_223" toJunction="4way_17"/>
<trip id="40" depart="5.924" fromJunction="4way_19" toJunction="4way_92"/>
<trip id="41" depart="6.072100000000001" fromJunction="4way_173" toJunction="3way_44"/>
<trip id="42" depart="6.2202" fromJunction="4way_106" toJunction="4way_141"/>
<trip id="43" depart="6.3683000000000005" fromJunction="3way_134" toJunction="4way_185"/>
<trip id="44" depart="6.516400000000001" fromJunction="4way_177" toJunction="4way_171"/>
<trip id="45" depart="6.6645" fromJunction="4way_83" toJunction="4way_92"/>
<trip id="46" depart="6.812600000000001" fromJunction="4way_54" toJunction="3way_220"/>
<trip id="47" depart="6.9607" fromJunction="3way_180" toJunction="4way_181"/>
<trip id="48" depart="7.1088000000000005" fromJunction="3way_5" toJunction="4way_201"/>
<trip id="49" depart="7.256900000000001" fromJunction="3way_2" toJunction="4way_41"/>
<trip id="50" depart="7.405" fromJunction="4way_121" toJunction="4way_113"/>
<trip id="51" depart="7.553100000000001" fromJunction="4way_88" toJunction="4way_114"/>
<trip id="52" depart="7.7012" fromJunction="4way_171" toJunction="4way_46"/>
<trip id="53" depart="7.8493" fromJunction="4way_156" toJunction="4way_22"/>
<trip id="54" depart="7.997400000000001" fromJunction="4way_58" toJunction="3way_45"/>
<trip id="55" depart="8.1455" fromJunction="4way_101" toJunction="4way_124"/>
<trip id="56" depart="8.293600000000001" fromJunction="4way_17" toJunction="4way_188"/>
<trip id="57" depart="8.4417" fromJunction="4way_153" toJunction="4way_175"/>
<trip id="58" depart="8.5898" fromJunction="4way_186" toJunction="4way_206"/>
<trip id="59" depart="8.7379" fromJunction="4way_173" toJunction="4way_206"/>
<trip id="60" depart="8.886000000000001" fromJunction="4way_110" toJunction="4way_84"/>
<trip id="61" depart="9.0341" fromJunction="4way_202" toJunction="4way_73"/>
<trip id="62" depart="9.1822" fromJunction="4way_82" toJunction="4way_49"/>
<trip id="63" depart="9.330300000000001" fromJunction="4way_32" toJunction="3way_5"/>
<trip id="64" depart="9.4784" fromJunction="4way_196" toJunction="4way_53"/>
<trip id="65" depart="9.6265" fromJunction="4way_64" toJunction="4way_112"/>
<trip id="66" depart="9.774600000000001" fromJunction="4way_17" toJunction="3way_220"/>
<trip id="67" depart="9.9227" fromJunction="4way_22" toJunction="4way_141"/>
<trip id="68" depart="10.0708" fromJunction="4way_38" toJunction="4way_156"/>
<trip id="69" depart="10.218900000000001" fromJunction="4way_79" toJunction="4way_38"/>
<trip id="70" depart="10.367" fromJunction="4way_63" toJunction="4way_72"/>
<trip id="71" depart="10.5151" fromJunction="4way_57" toJunction="4way_94"/>
<trip id="72" depart="10.6632" fromJunction="4way_203" toJunction="4way_160"/>
<trip id="73" depart="10.811300000000001" fromJunction="4way_147" toJunction="3way_164"/>
<trip id="74" depart="10.9594" fromJunction="4way_208" toJunction="4way_39"/>
<trip id="75" depart="11.1075" fromJunction="4way_161" toJunction="3way_216"/>
<trip id="76" depart="11.255600000000001" fromJunction="4way_112" toJunction="3way_214"/>
<trip id="77" depart="11.4037" fromJunction="4way_101" toJunction="3way_222"/>
<trip id="78" depart="11.5518" fromJunction="4way_141" toJunction="4way_160"/>
<trip id="79" depart="11.699900000000001" fromJunction="3way_59" toJunction="4way_183"/>
<trip id="80" depart="11.848" fromJunction="4way_154" toJunction="4way_188"/>
<trip id="81" depart="11.9961" fromJunction="4way_161" toJunction="4way_69"/>
<trip id="82" depart="12.144200000000001" fromJunction="4way_131" toJunction="4way_133"/>
<trip id="83" depart="12.292300000000001" fromJunction="4way_33" toJunction="3way_3"/>
<trip id="84" depart="12.4404" fromJunction="3way_212" toJunction="4way_99"/>
<trip id="85" depart="12.588500000000002" fromJunction="3way_13" toJunction="4way_185"/>
<trip id="86" depart="12.736600000000001" fromJunction="3way_5" toJunction="3way_120"/>
<trip id="87" depart="12.8847" fromJunction="3way_45" toJunction="4way_115"/>
<trip id="88" depart="13.032800000000002" fromJunction="4way_177" toJunction="4way_182"/>
<trip id="89" depart="13.180900000000001" fromJunction="3way_8" toJunction="4way_203"/>
<trip id="90" depart="13.329" fromJunction="4way_127" toJunction="3way_213"/>
<trip id="91" depart="13.4771" fromJunction="4way_16" toJunction="4way_171"/>
<trip id="92" depart="13.625200000000001" fromJunction="4way_97" toJunction="4way_192"/>
<trip id="93" depart="13.7733" fromJunction="4way_22" toJunction="4way_36"/>
<trip id="94" depart="13.9214" fromJunction="4way_62" toJunction="4way_99"/>
<trip id="95" depart="14.069500000000001" fromJunction="3way_90" toJunction="4way_168"/>
<trip id="96" depart="14.217600000000001" fromJunction="4way_28" toJunction="3way_165"/>
<trip id="97" depart="14.3657" fromJunction="4way_80" toJunction="4way_129"/>
<trip id="98" depart="14.513800000000002" fromJunction="4way_76" toJunction="3way_30"/>
<trip id="99" depart="14.661900000000001" fromJunction="4way_94" toJunction="3way_13"/>
<trip id="100" depart="14.81" fromJunction="4way_173" toJunction="4way_62"/>
<trip id="101" depart="14.958100000000002" fromJunction="3way_195" toJunction="4way_93"/>
<trip id="102" depart="15.106200000000001" fromJunction="3way_44" toJunction="3way_6"/>
<trip id="103" depart="15.2543" fromJunction="4way_154" toJunction="4way_128"/>
<trip id="104" depart="15.4024" fromJunction="4way_72" toJunction="4way_36"/>
<trip id="105" depart="15.550500000000001" fromJunction="3way_75" toJunction="4way_178"/>
<trip id="106" depart="15.6986" fromJunction="4way_106" toJunction="4way_68"/>
<trip id="107" depart="15.8467" fromJunction="4way_189" toJunction="3way_5"/>
<trip id="108" depart="15.994800000000001" fromJunction="4way_108" toJunction="4way_92"/>
<trip id="109" depart="16.1429" fromJunction="4way_41" toJunction="4way_22"/>
<trip id="110" depart="16.291" fromJunction="4way_176" toJunction="4way_157"/>
<trip id="111" depart="16.4391" fromJunction="4way_130" toJunction="4way_136"/>
<trip id="112" depart="16.587200000000003" fromJunction="4way_58" toJunction="3way_165"/>
<trip id="113" depart="16.735300000000002" fromJunction="3way_75" toJunction="4way_143"/>
<trip id="114" depart="16.8834" fromJunction="4way_99" toJunction="4way_43"/>
<trip id="115" depart="17.0315" fromJunction="3way_75" toJunction="4way_76"/>
<trip id="116" depart="17.1796" fromJunction="3way_6" toJunction="4way_170"/>
<trip id="117" depart="17.3277" fromJunction="4way_49" toJunction="3way_105"/>
<trip id="118" depart="17.4758" fromJunction="4way_184" toJunction="4way_78"/>
<trip id="119" depart="17.623900000000003" fromJunction="4way_201" toJunction="4way_151"/>
<trip id="120" depart="17.772000000000002" fromJunction="3way_209" toJunction="4way_146"/>
<trip id="121" depart="17.9201" fromJunction="3way_220" toJunction="4way_170"/>
<trip id="122" depart="18.0682" fromJunction="4way_153" toJunction="4way_54"/>
<trip id="123" depart="18.2163" fromJunction="3way_180" toJunction="4way_126"/>
<trip id="124" depart="18.3644" fromJunction="4way_65" toJunction="3way_217"/>
<trip id="125" depart="18.512500000000003" fromJunction="4way_207" toJunction="4way_18"/>
<trip id="126" depart="18.660600000000002" fromJunction="4way_159" toJunction="4way_25"/>
<trip id="127" depart="18.8087" fromJunction="3way_104" toJunction="4way_87"/>
<trip id="128" depart="18.9568" fromJunction="4way_201" toJunction="4way_96"/>
<trip id="129" depart="19.1049" fromJunction="4way_196" toJunction="4way_88"/>
<trip id="130" depart="19.253" fromJunction="3way_164" toJunction="4way_31"/>
<trip id="131" depart="19.4011" fromJunction="4way_177" toJunction="3way_4"/>
<trip id="132" depart="19.549200000000003" fromJunction="4way_85" toJunction="4way_98"/>
<trip id="133" depart="19.697300000000002" fromJunction="4way_201" toJunction="4way_166"/>
<trip id="134" depart="19.8454" fromJunction="4way_65" toJunction="3way_44"/>
<trip id="135" depart="19.9935" fromJunction="4way_191" toJunction="4way_148"/>
<trip id="136" depart="20.1416" fromJunction="4way_88" toJunction="4way_152"/>
<trip id="137" depart="20.2897" fromJunction="4way_43" toJunction="3way_15"/>
<trip id="138" depart="20.437800000000003" fromJunction="4way_130" toJunction="4way_28"/>
<trip id="139" depart="20.585900000000002" fromJunction="4way_191" toJunction="4way_157"/>
<trip id="140" depart="20.734" fromJunction="4way_101" toJunction="4way_196"/>
<trip id="141" depart="20.8821" fromJunction="3way_3" toJunction="4way_112"/>
<trip id="142" depart="21.0302" fromJunction="3way_217" toJunction="4way_182"/>
<trip id="143" depart="21.1783" fromJunction="4way_35" toJunction="4way_148"/>
<trip id="144" depart="21.3264" fromJunction="4way_187" toJunction="4way_95"/>
<trip id="145" depart="21.474500000000003" fromJunction="3way_219" toJunction="4way_63"/>
<trip id="146" depart="21.622600000000002" fromJunction="3way_165" toJunction="4way_205"/>
<trip id="147" depart="21.7707" fromJunction="3way_45" toJunction="4way_155"/>
<trip id="148" depart="21.9188" fromJunction="4way_146" toJunction="3way_149"/>
<trip id="149" depart="22.0669" fromJunction="4way_88" toJunction="4way_133"/>
<trip id="150" depart="22.215" fromJunction="4way_55" toJunction="4way_102"/>
<trip id="151" depart="22.363100000000003" fromJunction="3way_89" toJunction="4way_137"/>
<trip id="152" depart="22.511200000000002" fromJunction="3way_15" toJunction="4way_198"/>
<trip id="153" depart="22.6593" fromJunction="3way_12" toJunction="3way_220"/>
<trip id="154" depart="22.8074" fromJunction="3way_3" toJunction="4way_84"/>
<trip id="155" depart="22.9555" fromJunction="3way_217" toJunction="4way_40"/>
<trip id="156" depart="23.1036" fromJunction="3way_119" toJunction="3way_89"/>
<trip id="157" depart="23.251700000000003" fromJunction="4way_46" toJunction="4way_98"/>
<trip id="158" depart="23.399800000000003" fromJunction="4way_111" toJunction="4way_34"/>
<trip id="159" depart="23.547900000000002" fromJunction="4way_84" toJunction="4way_146"/>
<trip id="160" depart="23.696" fromJunction="3way_220" toJunction="4way_121"/>
<trip id="161" depart="23.8441" fromJunction="4way_32" toJunction="3way_13"/>
<trip id="162" depart="23.9922" fromJunction="4way_154" toJunction="4way_91"/>
<trip id="163" depart="24.1403" fromJunction="4way_173" toJunction="4way_143"/>
<trip id="164" depart="24.288400000000003" fromJunction="4way_93" toJunction="4way_166"/>
<trip id="165" depart="24.436500000000002" fromJunction="4way_100" toJunction="3way_180"/>
<trip id="166" depart="24.584600000000002" fromJunction="4way_188" toJunction="3way_13"/>
<trip id="167" depart="24.7327" fromJunction="4way_55" toJunction="4way_70"/>
<trip id="168" depart="24.8808" fromJunction="4way_78" toJunction="4way_91"/>
<trip id="169" depart="25.0289" fromJunction="4way_136" toJunction="4way_201"/>
<trip id="170" depart="25.177000000000003" fromJunction="3way_135" toJunction="4way_63"/>
<trip id="171" depart="25.325100000000003" fromJunction="3way_10" toJunction="4way_169"/>
<trip id="172" depart="25.473200000000002" fromJunction="3way_89" toJunction="4way_130"/>
<trip id="173" depart="25.6213" fromJunction="4way_47" toJunction="4way_170"/>
<trip id="174" depart="25.7694" fromJunction="4way_88" toJunction="4way_171"/>
<trip id="175" depart="25.9175" fromJunction="3way_8" toJunction="4way_202"/>
<trip id="176" depart="26.065600000000003" fromJunction="4way_140" toJunction="4way_79"/>
<trip id="177" depart="26.213700000000003" fromJunction="4way_128" toJunction="4way_36"/>
<trip id="178" depart="26.361800000000002" fromJunction="3way_221" toJunction="4way_151"/>
<trip id="179" depart="26.509900000000002" fromJunction="4way_73" toJunction="4way_138"/>
<trip id="180" depart="26.658" fromJunction="4way_87" toJunction="3way_165"/>
<trip id="181" depart="26.8061" fromJunction="4way_154" toJunction="4way_66"/>
<trip id="182" depart="26.9542" fromJunction="4way_169" toJunction="4way_206"/>
<trip id="183" depart="27.102300000000003" fromJunction="4way_168" toJunction="4way_84"/>
<trip id="184" depart="27.250400000000003" fromJunction="4way_158" toJunction="4way_87"/>
<trip id="185" depart="27.398500000000002" fromJunction="4way_122" toJunction="4way_188"/>
<trip id="186" depart="27.5466" fromJunction="4way_172" toJunction="4way_189"/>
<trip id="187" depart="27.6947" fromJunction="3way_214" toJunction="4way_31"/>
<trip id="188" depart="27.8428" fromJunction="4way_73" toJunction="4way_130"/>
<trip id="189" depart="27.990900000000003" fromJunction="4way_22" toJunction="4way_169"/>
<trip id="190" depart="28.139000000000003" fromJunction="4way_169" toJunction="4way_131"/>
<trip id="191" depart="28.287100000000002" fromJunction="4way_171" toJunction="4way_58"/>
<trip id="192" depart="28.435200000000002" fromJunction="4way_102" toJunction="4way_205"/>
<trip id="193" depart="28.5833" fromJunction="3way_214" toJunction="4way_190"/>
<trip id="194" depart="28.7314" fromJunction="4way_168" toJunction="4way_142"/>
<trip id="195" depart="28.8795" fromJunction="4way_49" toJunction="3way_29"/>
<trip id="196" depart="29.027600000000003" fromJunction="4way_101" toJunction="4way_91"/>
<trip id="197" depart="29.175700000000003" fromJunction="4way_73" toJunction="3way_8"/>
<trip id="198" depart="29.323800000000002" fromJunction="3way_180" toJunction="3way_4"/>
<trip id="199" depart="29.4719" fromJunction="4way_177" toJunction="4way_168"/>
<trip id="200" depart="29.62" fromJunction="4way_28" toJunction="3way_164"/>
<trip id="201" depart="29.7681" fromJunction="4way_154" toJunction="4way_176"/>
<trip id="202" depart="29.916200000000003" fromJunction="3way_15" toJunction="4way_122"/>
<trip id="203" depart="30.064300000000003" fromJunction="3way_8" toJunction="4way_97"/>
<trip id="204" depart="30.212400000000002" fromJunction="4way_64" toJunction="3way_4"/>
<trip id="205" depart="30.360500000000002" fromJunction="4way_61" toJunction="3way_59"/>
<trip id="206" depart="30.5086" fromJunction="4way_61" toJunction="3way_60"/>
<trip id="207" depart="30.6567" fromJunction="3way_3" toJunction="3way_221"/>
<trip id="208" depart="30.8048" fromJunction="4way_112" toJunction="3way_209"/>
<trip id="209" depart="30.952900000000003" fromJunction="4way_178" toJunction="4way_133"/>
<trip id="210" depart="31.101000000000003" fromJunction="3way_213" toJunction="4way_198"/>
<trip id="211" depart="31.249100000000002" fromJunction="4way_80" toJunction="4way_187"/>
<trip id="212" depart="31.3972" fromJunction="3way_44" toJunction="4way_178"/>
<trip id="213" depart="31.5453" fromJunction="4way_181" toJunction="4way_85"/>
<trip id="214" depart="31.6934" fromJunction="4way_68" toJunction="4way_31"/>
<trip id="215" depart="31.841500000000003" fromJunction="4way_83" toJunction="4way_46"/>
<trip id="216" depart="31.989600000000003" fromJunction="4way_49" toJunction="4way_170"/>
<trip id="217" depart="32.1377" fromJunction="4way_181" toJunction="4way_96"/>
<trip id="218" depart="32.2858" fromJunction="4way_19" toJunction="4way_24"/>
<trip id="219" depart="32.4339" fromJunction="4way_41" toJunction="4way_33"/>
<trip id="220" depart="32.582" fromJunction="3way_11" toJunction="4way_162"/>
<trip id="221" depart="32.7301" fromJunction="4way_197" toJunction="3way_15"/>
<trip id="222" depart="32.8782" fromJunction="4way_163" toJunction="4way_190"/>
<trip id="223" depart="33.0263" fromJunction="4way_87" toJunction="4way_118"/>
<trip id="224" depart="33.174400000000006" fromJunction="4way_193" toJunction="4way_17"/>
<trip id="225" depart="33.322500000000005" fromJunction="3way_179" toJunction="4way_61"/>
<trip id="226" depart="33.470600000000005" fromJunction="3way_15" toJunction="4way_58"/>
<trip id="227" depart="33.618700000000004" fromJunction="3way_13" toJunction="4way_158"/>
<trip id="228" depart="33.7668" fromJunction="4way_206" toJunction="4way_99"/>
<trip id="229" depart="33.9149" fromJunction="4way_93" toJunction="4way_136"/>
<trip id="230" depart="34.063" fromJunction="4way_159" toJunction="4way_78"/>
<trip id="231" depart="34.2111" fromJunction="3way_212" toJunction="4way_16"/>
<trip id="232" depart="34.3592" fromJunction="4way_47" toJunction="4way_139"/>
<trip id="233" depart="34.5073" fromJunction="4way_16" toJunction="4way_71"/>
<trip id="234" depart="34.6554" fromJunction="4way_28" toJunction="4way_125"/>
<trip id="235" depart="34.8035" fromJunction="4way_161" toJunction="4way_172"/>
<trip id="236" depart="34.9516" fromJunction="4way_159" toJunction="4way_207"/>
<trip id="237" depart="35.099700000000006" fromJunction="4way_103" toJunction="4way_188"/>
<trip id="238" depart="35.247800000000005" fromJunction="4way_139" toJunction="4way_193"/>
<trip id="239" depart="35.395900000000005" fromJunction="4way_196" toJunction="3way_59"/>
<trip id="240" depart="35.544000000000004" fromJunction="4way_34" toJunction="3way_216"/>
<trip id="241" depart="35.6921" fromJunction="4way_67" toJunction="3way_220"/>
<trip id="242" depart="35.8402" fromJunction="4way_57" toJunction="4way_108"/>
<trip id="243" depart="35.9883" fromJunction="4way_66" toJunction="4way_103"/>
<trip id="244" depart="36.1364" fromJunction="4way_22" toJunction="4way_136"/>
<trip id="245" depart="36.2845" fromJunction="4way_183" toJunction="4way_72"/>
<trip id="246" depart="36.4326" fromJunction="4way_136" toJunction="4way_96"/>
<trip id="247" depart="36.5807" fromJunction="4way_168" toJunction="4way_154"/>
<trip id="248" depart="36.7288" fromJunction="4way_125" toJunction="4way_46"/>
<trip id="249" depart="36.8769" fromJunction="4way_78" toJunction="4way_62"/>
<trip id="250" depart="37.025000000000006" fromJunction="4way_159" toJunction="4way_200"/>
<trip id="251" depart="37.173100000000005" fromJunction="4way_162" toJunction="4way_137"/>
<trip id="252" depart="37.321200000000005" fromJunction="3way_11" toJunction="4way_146"/>
<trip id="253" depart="37.469300000000004" fromJunction="4way_124" toJunction="4way_76"/>
<trip id="254" depart="37.6174" fromJunction="4way_197" toJunction="3way_179"/>
<trip id="255" depart="37.7655" fromJunction="4way_128" toJunction="4way_129"/>
<trip id="256" depart="37.9136" fromJunction="4way_39" toJunction="4way_127"/>
<trip id="257" depart="38.0617" fromJunction="4way_167" toJunction="3way_105"/>
<trip id="258" depart="38.2098" fromJunction="4way_206" toJunction="4way_113"/>
<trip id="259" depart="38.3579" fromJunction="4way_166" toJunction="4way_66"/>
<trip id="260" depart="38.506" fromJunction="4way_24" toJunction="3way_7"/>
<trip id="261" depart="38.6541" fromJunction="4way_78" toJunction="3way_2"/>
<trip id="262" depart="38.8022" fromJunction="4way_147" toJunction="4way_21"/>
<trip id="263" depart="38.950300000000006" fromJunction="4way_183" toJunction="3way_119"/>
<trip id="264" depart="39.098400000000005" fromJunction="4way_167" toJunction="3way_6"/>
<trip id="265" depart="39.246500000000005" fromJunction="4way_151" toJunction="4way_127"/>
<trip id="266" depart="39.394600000000004" fromJunction="3way_209" toJunction="3way_90"/>
<trip id="267" depart="39.5427" fromJunction="4way_173" toJunction="4way_171"/>
<trip id="268" depart="39.6908" fromJunction="4way_43" toJunction="4way_98"/>
<trip id="269" depart="39.8389" fromJunction="4way_23" toJunction="3way_1"/>
<trip id="270" depart="39.987" fromJunction="4way_22" toJunction="4way_52"/>
<trip id="271" depart="40.1351" fromJunction="3way_4" toJunction="4way_88"/>
<trip id="272" depart="40.2832" fromJunction="4way_175" toJunction="4way_173"/>
<trip id="273" depart="40.4313" fromJunction="4way_137" toJunction="4way_140"/>
<trip id="274" depart="40.5794" fromJunction="3way_149" toJunction="4way_100"/>
<trip id="275" depart="40.7275" fromJunction="4way_170" toJunction="4way_109"/>
<trip id="276" depart="40.875600000000006" fromJunction="3way_134" toJunction="4way_173"/>
<trip id="277" depart="41.023700000000005" fromJunction="4way_198" toJunction="3way_30"/>
<trip id="278" depart="41.171800000000005" fromJunction="4way_42" toJunction="4way_127"/>
<trip id="279" depart="41.319900000000004" fromJunction="3way_220" toJunction="4way_112"/>
<trip id="280" depart="41.468" fromJunction="4way_176" toJunction="4way_148"/>
<trip id="281" depart="41.6161" fromJunction="4way_147" toJunction="4way_125"/>
<trip id="282" depart="41.7642" fromJunction="4way_162" toJunction="4way_51"/>
<trip id="283" depart="41.9123" fromJunction="4way_103" toJunction="4way_41"/>
<trip id="284" depart="42.0604" fromJunction="3way_8" toJunction="4way_147"/>
<trip id="285" depart="42.2085" fromJunction="4way_123" toJunction="3way_211"/>
<trip id="286" depart="42.3566" fromJunction="4way_32" toJunction="4way_58"/>
<trip id="287" depart="42.5047" fromJunction="4way_27" toJunction="3way_214"/>
<trip id="288" depart="42.6528" fromJunction="4way_102" toJunction="4way_124"/>
<trip id="289" depart="42.800900000000006" fromJunction="4way_68" toJunction="3way_214"/>
<trip id="290" depart="42.949000000000005" fromJunction="3way_74" toJunction="4way_109"/>
<trip id="291" depart="43.097100000000005" fromJunction="4way_46" toJunction="4way_173"/>
<trip id="292" depart="43.245200000000004" fromJunction="3way_29" toJunction="3way_9"/>
<trip id="293" depart="43.3933" fromJunction="4way_102" toJunction="3way_29"/>
<trip id="294" depart="43.5414" fromJunction="4way_72" toJunction="4way_129"/>
<trip id="295" depart="43.6895" fromJunction="4way_200" toJunction="4way_98"/>
<trip id="296" depart="43.8376" fromJunction="4way_208" toJunction="4way_47"/>
<trip id="297" depart="43.9857" fromJunction="4way_20" toJunction="4way_48"/>
<trip id="298" depart="44.1338" fromJunction="4way_148" toJunction="4way_93"/>
<trip id="299" depart="44.2819" fromJunction="4way_122" toJunction="3way_211"/>
<trip id="300" depart="44.43" fromJunction="3way_29" toJunction="4way_128"/>
<trip id="301" depart="44.578100000000006" fromJunction="4way_35" toJunction="4way_82"/>
<trip id="302" depart="44.726200000000006" fromJunction="4way_16" toJunction="4way_166"/>
<trip id="303" depart="44.874300000000005" fromJunction="4way_63" toJunction="4way_155"/>
<trip id="304" depart="45.022400000000005" fromJunction="4way_152" toJunction="4way_154"/>
<trip id="305" depart="45.170500000000004" fromJunction="3way_220" toJunction="4way_118"/>
<trip id="306" depart="45.3186" fromJunction="4way_167" toJunction="3way_149"/>
<trip id="307" depart="45.4667" fromJunction="4way_53" toJunction="4way_22"/>
<trip id="308" depart="45.6148" fromJunction="4way_208" toJunction="4way_153"/>
<trip id="309" depart="45.7629" fromJunction="4way_69" toJunction="4way_197"/>
<trip id="310" depart="45.911" fromJunction="4way_175" toJunction="4way_172"/>
<trip id="311" depart="46.0591" fromJunction="4way_42" toJunction="4way_133"/>
<trip id="312" depart="46.2072" fromJunction="4way_188" toJunction="4way_204"/>
<trip id="313" depart="46.3553" fromJunction="3way_217" toJunction="4way_152"/>
<trip id="314" depart="46.503400000000006" fromJunction="4way_31" toJunction="3way_29"/>
<trip id="315" depart="46.651500000000006" fromJunction="4way_185" toJunction="4way_79"/>
<trip id="316" depart="46.799600000000005" fromJunction="4way_73" toJunction="4way_40"/>
<trip id="317" depart="46.947700000000005" fromJunction="3way_179" toJunction="3way_209"/>
<trip id="318" depart="47.095800000000004" fromJunction="4way_144" toJunction="4way_22"/>
<trip id="319" depart="47.243900000000004" fromJunction="4way_192" toJunction="4way_101"/>
<trip id="320" depart="47.392" fromJunction="4way_168" toJunction="4way_163"/>
<trip id="321" depart="47.5401" fromJunction="3way_217" toJunction="4way_108"/>
<trip id="322" depart="47.6882" fromJunction="4way_53" toJunction="4way_143"/>
<trip id="323" depart="47.8363" fromJunction="3way_149" toJunction="4way_146"/>
<trip id="324" depart="47.9844" fromJunction="4way_186" toJunction="4way_110"/>
<trip id="325" depart="48.1325" fromJunction="3way_212" toJunction="4way_31"/>
<trip id="326" depart="48.2806" fromJunction="3way_13" toJunction="4way_131"/>
<trip id="327" depart="48.428700000000006" fromJunction="3way_209" toJunction="4way_20"/>
<trip id="328" depart="48.576800000000006" fromJunction="4way_148" toJunction="4way_169"/>
<trip id="329" depart="48.724900000000005" fromJunction="4way_131" toJunction="4way_49"/>
<trip id="330" depart="48.873000000000005" fromJunction="4way_121" toJunction="3way_209"/>
<trip id="331" depart="49.021100000000004" fromJunction="4way_168" toJunction="4way_183"/>
<trip id="332" depart="49.169200000000004" fromJunction="4way_182" toJunction="4way_98"/>
<trip id="333" depart="49.3173" fromJunction="4way_187" toJunction="4way_39"/>
<trip id="334" depart="49.4654" fromJunction="4way_79" toJunction="4way_168"/>
<trip id="335" depart="49.6135" fromJunction="3way_59" toJunction="4way_97"/>
<trip id="336" depart="49.7616" fromJunction="4way_38" toJunction="4way_205"/>
<trip id="337" depart="49.9097" fromJunction="4way_36" toJunction="4way_84"/>
<trip id="338" depart="50.0578" fromJunction="4way_183" toJunction="3way_194"/>
<trip id="339" depart="50.2059" fromJunction="4way_92" toJunction="4way_183"/>
<trip id="340" depart="50.354000000000006" fromJunction="4way_114" toJunction="3way_7"/>
<trip id="341" depart="50.502100000000006" fromJunction="4way_67" toJunction="3way_194"/>
<trip id="342" depart="50.650200000000005" fromJunction="4way_172" toJunction="4way_203"/>
<trip id="343" depart="50.798300000000005" fromJunction="3way_164" toJunction="4way_73"/>
<trip id="344" depart="50.946400000000004" fromJunction="3way_7" toJunction="4way_161"/>
<trip id="345" depart="51.094500000000004" fromJunction="4way_183" toJunction="4way_36"/>
<trip id="346" depart="51.2426" fromJunction="4way_48" toJunction="4way_185"/>
<trip id="347" depart="51.3907" fromJunction="3way_5" toJunction="3way_150"/>
<trip id="348" depart="51.5388" fromJunction="4way_86" toJunction="4way_170"/>
<trip id="349" depart="51.6869" fromJunction="3way_45" toJunction="4way_78"/>
<trip id="350" depart="51.835" fromJunction="3way_104" toJunction="3way_89"/>
<trip id="351" depart="51.9831" fromJunction="3way_164" toJunction="3way_60"/>
<trip id="352" depart="52.13120000000001" fromJunction="3way_44" toJunction="4way_106"/>
<trip id="353" depart="52.279300000000006" fromJunction="4way_131" toJunction="3way_44"/>
<trip id="354" depart="52.427400000000006" fromJunction="4way_111" toJunction="3way_214"/>
<trip id="355" depart="52.575500000000005" fromJunction="4way_154" toJunction="4way_40"/>
<trip id="356" depart="52.723600000000005" fromJunction="3way_120" toJunction="3way_216"/>
<trip id="357" depart="52.871700000000004" fromJunction="4way_200" toJunction="4way_79"/>
<trip id="358" depart="53.019800000000004" fromJunction="4way_70" toJunction="4way_197"/>