<?xml version="1.0" encoding="UTF-8"?>

<!-- generated on 2023-07-27 15:38:22 by Eclipse SUMO duarouter Version 1.12.0
<configuration xmlns:xsi="http://www.w3.org/2001/XMLSchema-instance" xsi:noNamespaceSchemaLocation="http://sumo.dlr.de/xsd/duarouterConfiguration.xsd">

    <input>
        <net-file value="sq.net.xml"/>
        <route-files value="sq.trips.xml"/>
        <junction-taz value="true"/>
    </input>

    <output>
        <output-file value="sq.rou.xml"/>
        <alternatives-output value="sq.rou.alt.xml"/>
    </output>

    <processing>
        <weights.random-factor value="1.2"/>
    </processing>

    <time>
        <begin value="0"/>
        <end value="7200"/>
    </time>

    <report>
        <verbose value="true"/>
    </report>

    <random_number>
        <seed value="5"/>
    </random_number>

</configuration>
-->

<routes xmlns:xsi="http://www.w3.org/2001/XMLSchema-instance" xsi:noNamespaceSchemaLocation="http://sumo.dlr.de/xsd/routes_file.xsd">
    <vehicle id="0" depart="0.00">
        <route edges="52_4way_12to4way_11 49_4way_11to4way_10 50_4way_10to4way_18 63_4way_18to4way_26"/>
    </vehicle>
    <vehicle id="1" depart="0.36">
        <route edges="73_4way_26to4way_27 65_4way_27to4way_19 53_4way_19to4way_11"/>
    </vehicle>
    <vehicle id="2" depart="0.71">
        <route edges="65_4way_27to4way_19 62_4way_19to4way_18 59_4way_18to4way_17"/>
    </vehicle>
    <vehicle id="3" depart="1.07">
        <route edges="102_4way_53to4way_45 91_4way_45to4way_37 80_4way_37to4way_29 77_4way_29to4way_28 75_4way_28to4way_27 73_4way_27to4way_26 71_4way_26to4way_25"/>
    </vehicle>
    <vehicle id="4" depart="1.43">
        <route edges="8_3way_8to3way_16 7_3way_16to3way_24 14_3way_24to3way_32 21_3way_32to4way_33 82_4way_33to4way_34 84_4way_34to4way_35 86_4way_35to4way_36 88_4way_36to4way_37 90_4way_37to4way_38"/>
    </vehicle>
    <vehicle id="5" depart="1.79">
        <route edges="63_4way_18to4way_26 74_4way_26to4way_34 85_4way_34to4way_42 96_4way_42to4way_50 105_4way_50to4way_51 106_4way_51to4way_52"/>
    </vehicle>
    <vehicle id="6" depart="2.14">
        <route edges="68_4way_22to4way_21 66_4way_21to4way_20 64_4way_20to4way_19 62_4way_19to4way_18 63_4way_18to4way_26 74_4way_26to4way_34 85_4way_34to4way_42"/>
    </vehicle>
    <vehicle id="7" depart="2.50">
        <route edges="32_3way_6to3way_5"/>
    </vehicle>
    <vehicle id="8" depart="2.86">
        <route edges="57_4way_21to4way_13 33_4way_13to3way_5 24_3way_5to3way_4 16_3way_4to3way_3 10_3way_3to3way_2"/>
    </vehicle>
    <vehicle id="9" depart="3.21">
        <route edges="99_4way_45to4way_44"/>
    </vehicle>
    <vehicle id="10" depart="3.57">
        <route edges="107_4way_52to4way_53 108_4way_53to4way_54 103_4way_54to4way_46"/>
    </vehicle>
    <vehicle id="11" depart="3.93">
        <route edges="89_4way_44to4way_36 86_4way_36to4way_35 84_4way_35to4way_34 82_4way_34to4way_33"/>
    </vehicle>
    <vehicle id="12" depart="4.29">
        <route edges="75_4way_27to4way_28 77_4way_28to4way_29 79_4way_29to4way_30 19_4way_30to3way_31 12_3way_31to3way_23"/>
    </vehicle>
    <vehicle id="13" depart="4.64">
        <route edges="19_4way_30to3way_31"/>
    </vehicle>
    <vehicle id="14" depart="5.00">
        <route edges="61_4way_9to4way_17 59_4way_17to4way_18"/>
    </vehicle>
    <vehicle id="15" depart="5.36">
        <route edges="100_4way_44to4way_52 44_4way_52to3way_60 40_3way_60to3way_59"/>
    </vehicle>
    <vehicle id="16" depart="5.71">
        <route edges="85_4way_42to4way_34 82_4way_34to4way_33"/>
    </vehicle>
    <vehicle id="17" depart="6.07">
        <route edges="53_4way_19to4way_11 17_4way_11to3way_3 10_3way_3to3way_2"/>
    </vehicle>
    <vehicle id="18" depart="6.43">
        <route edges="53_4way_19to4way_11"/>
    </vehicle>
    <vehicle id="19" depart="6.79">
        <route edges="97_4way_43to4way_44 99_4way_44to4way_45 101_4way_45to4way_46 92_4way_46to4way_38 81_4way_38to4way_30"/>
    </vehicle>
    <vehicle id="20" depart="7.14">
        <route edges="15_4way_25to3way_24"/>
    </vehicle>
    <vehicle id="21" depart="7.50">
        <route edges="16_3way_4to3way_3 17_3way_3to4way_11 53_4way_11to4way_19 65_4way_19to4way_27 76_4way_27to4way_35 87_4way_35to4way_43 98_4way_43to4way_51"/>
    </vehicle>
    <vehicle id="22" depart="7.86">
        <route edges="12_3way_23to3way_31 18_3way_31to3way_39 22_3way_39to3way_47 28_3way_47to3way_55 34_3way_55to3way_62"/>
    </vehicle>
    <vehicle id="23" depart="8.21">
        <route edges="14_3way_24to3way_32 20_3way_32to3way_40 26_3way_40to3way_48"/>
    </vehicle>
    <vehicle id="24" depart="8.57">
        <route edges="72_4way_25to4way_33 83_4way_33to4way_41 93_4way_41to4way_42"/>
    </vehicle>
    <vehicle id="25" depart="8.93">
        <route edges="6_3way_15to4way_14 58_4way_14to4way_22 70_4way_22to4way_30 81_4way_30to4way_38 92_4way_38to4way_46 103_4way_46to4way_54"/>
    </vehicle>
    <vehicle id="26" depart="9.29">
        <route edges="23_3way_39to4way_38 92_4way_38to4way_46 103_4way_46to4way_54 47_4way_54to3way_62"/>
    </vehicle>
    <vehicle id="27" depart="9.64">
        <route edges="41_3way_59to4way_51 98_4way_51to4way_43 87_4way_43to4way_35"/>
    </vehicle>
    <vehicle id="28" depart="10.00">
        <route edges="44_3way_60to4way_52 100_4way_52to4way_44 89_4way_44to4way_36 86_4way_36to4way_35 84_4way_35to4way_34 82_4way_34to4way_33"/>
    </vehicle>
    <vehicle id="29" depart="10.36">
        <route edges="4_3way_15to3way_23 12_3way_23to3way_31 18_3way_31to3way_39"/>
    </vehicle>
    <vehicle id="30" depart="10.71">
        <route edges="19_3way_31to4way_30 79_4way_30to4way_29 77_4way_29to4way_28 75_4way_28to4way_27 76_4way_27to4way_35"/>
    </vehicle>
    <vehicle id="31" depart="11.07">
        <route edges="7_3way_16to3way_24 14_3way_24to3way_32 20_3way_32to3way_40 26_3way_40to3way_48 31_3way_48to4way_49 104_4way_49to4way_50 105_4way_50to4way_51 106_4way_51to4way_52 107_4way_52to4way_53 108_4way_53to4way_54 35_4way_54to3way_55"/>
    </vehicle>
    <vehicle id="32" depart="11.43">
        <route edges="32_3way_6to3way_5 33_3way_5to4way_13 57_4way_13to4way_21"/>
    </vehicle>
    <vehicle id="33" depart="11.78">
        <route edges="32_3way_6to3way_5 33_3way_5to4way_13 57_4way_13to4way_21 69_4way_21to4way_29"/>
    </vehicle>
    <vehicle id="34" depart="12.14">
        <route edges="93_4way_41to4way_42 95_4way_42to4way_43 97_4way_43to4way_44 99_4way_44to4way_45 101_4way_45to4way_46"/>
    </vehicle>
    <vehicle id="35" depart="12.50">
        <route edges="53_4way_11to4way_19 65_4way_19to4way_27 76_4way_27to4way_35 87_4way_35to4way_43 97_4way_43to4way_44 99_4way_44to4way_45 101_4way_45to4way_46"/>
    </vehicle>
    <vehicle id="36" depart="12.86">
        <route edges="17_3way_3to4way_11 53_4way_11to4way_19 65_4way_19to4way_27 75_4way_27to4way_28"/>
    </vehicle>
    <vehicle id="37" depart="13.21">
        <route edges="13_3way_23to4way_22 68_4way_22to4way_21 66_4way_21to4way_20 64_4way_20to4way_19 65_4way_19to4way_27 76_4way_27to4way_35 87_4way_35to4way_43 98_4way_43to4way_51 41_4way_51to3way_59 38_3way_59to3way_58"/>
    </vehicle>
    <vehicle id="38" depart="13.57">
        <route edges="12_3way_23to3way_31 18_3way_31to3way_39 22_3way_39to3way_47 28_3way_47to3way_55 34_3way_55to3way_62 45_3way_62to3way_61 43_3way_61to3way_60 40_3way_60to3way_59 38_3way_59to3way_58 36_3way_58to3way_57"/>
    </vehicle>
    <vehicle id="39" depart="13.93">
        <route edges="48_4way_9to3way_8 8_3way_8to3way_16 7_3way_16to3way_24 14_3way_24to3way_32 20_3way_32to3way_40"/>
    </vehicle>
    <vehicle id="40" depart="14.28">
        <route edges="98_4way_51to4way_43 87_4way_43to4way_35 76_4way_35to4way_27 65_4way_27to4way_19 53_4way_19to4way_11 17_4way_11to3way_3 16_3way_3to3way_4"/>
    </vehicle>
    <vehicle id="41" depart="14.64">
        <route edges="41_3way_59to4way_51 98_4way_51to4way_43 87_4way_43to4way_35 84_4way_35to4way_34"/>
    </vehicle>
    <vehicle id="42" depart="15.00">
        <route edges="32_3way_6to3way_5 24_3way_5to3way_4 16_3way_4to3way_3 10_3way_3to3way_2 11_3way_2to4way_10 50_4way_10to4way_18"/>
    </vehicle>
    <vehicle id="43" depart="15.36">
        <route edges="68_4way_22to4way_21 66_4way_21to4way_20 64_4way_20to4way_19 62_4way_19to4way_18 63_4way_18to4way_26 74_4way_26to4way_34 85_4way_34to4way_42"/>
    </vehicle>
    <vehicle id="44" depart="15.71">
        <route edges="95_4way_43to4way_42 93_4way_42to4way_41 27_4way_41to3way_40"/>
    </vehicle>
    <vehicle id="45" depart="16.07">
        <route edges="54_4way_12to4way_13 56_4way_13to4way_14 6_4way_14to3way_15 4_3way_15to3way_23"/>
    </vehicle>
    <vehicle id="46" depart="16.43">
        <route edges="29_3way_47to4way_46 101_4way_46to4way_45 99_4way_45to4way_44 97_4way_44to4way_43 95_4way_43to4way_42 93_4way_42to4way_41 94_4way_41to4way_49 37_4way_49to3way_57"/>
    </vehicle>
    <vehicle id="47" depart="16.78">
        <route edges="11_3way_2to4way_10 50_4way_10to4way_18 63_4way_18to4way_26 74_4way_26to4way_34 85_4way_34to4way_42 96_4way_42to4way_50"/>
    </vehicle>
    <vehicle id="48" depart="17.14">
        <route edges="3_3way_1to4way_9 61_4way_9to4way_17 59_4way_17to4way_18 62_4way_18to4way_19 64_4way_19to4way_20 66_4way_20to4way_21"/>
    </vehicle>
    <vehicle id="49" depart="17.50">
        <route edges="38_3way_58to3way_59 41_3way_59to4way_51 98_4way_51to4way_43"/>
    </vehicle>
    <vehicle id="50" depart="17.86">
        <route edges="81_4way_38to4way_30 79_4way_30to4way_29 77_4way_29to4way_28"/>
    </vehicle>
    <vehicle id="51" depart="18.21">
        <route edges="96_4way_42to4way_50 39_4way_50to3way_58 38_3way_58to3way_59 40_3way_59to3way_60"/>
    </vehicle>
    <vehicle id="52" depart="18.57">
        <route edges="96_4way_42to4way_50"/>
    </vehicle>
    <vehicle id="53" depart="18.93">
        <route edges="90_4way_38to4way_37 91_4way_37to4way_45 102_4way_45to4way_53 46_4way_53to3way_61"/>
    </vehicle>
    <vehicle id="54" depart="19.28">
        <route edges="77_4way_29to4way_28 75_4way_28to4way_27 73_4way_27to4way_26 71_4way_26to4way_25"/>
    </vehicle>
    <vehicle id="55" depart="19.64">
        <route edges="36_3way_57to3way_58 38_3way_58to3way_59 41_3way_59to4way_51"/>
    </vehicle>
    <vehicle id="56" depart="20.00">
        <route edges="48_3way_8to4way_9 51_4way_9to4way_10 49_4way_10to4way_11 52_4way_11to4way_12 54_4way_12to4way_13"/>
    </vehicle>
    <vehicle id="57" depart="20.36">
        <route edges="95_4way_42to4way_43 97_4way_43to4way_44 99_4way_44to4way_45"/>
    </vehicle>
    <vehicle id="58" depart="20.71">
        <route edges="106_4way_51to4way_52 107_4way_52to4way_53 102_4way_53to4way_45"/>
    </vehicle>
    <vehicle id="59" depart="21.07">
        <route edges="50_4way_10to4way_18 62_4way_18to4way_19 64_4way_19to4way_20"/>
    </vehicle>
    <vehicle id="60" depart="21.43">
        <route edges="76_4way_27to4way_35 86_4way_35to4way_36 88_4way_36to4way_37 90_4way_37to4way_38"/>
    </vehicle>
    <vehicle id="61" depart="21.78">
        <route edges="49_4way_11to4way_10 51_4way_10to4way_9 61_4way_9to4way_17"/>
    </vehicle>
    <vehicle id="62" depart="22.14">
        <route edges="26_3way_48to3way_40 20_3way_40to3way_32 14_3way_32to3way_24 7_3way_24to3way_16 8_3way_16to3way_8 2_3way_8to3way_1 1_3way_1to3way_2"/>
    </vehicle>
    <vehicle id="63" depart="22.50">
        <route edges="36_3way_57to3way_58 38_3way_58to3way_59 41_3way_59to4way_51 98_4way_51to4way_43 87_4way_43to4way_35"/>
    </vehicle>
    <vehicle id="64" depart="22.85">
        <route edges="59_4way_17to4way_18 62_4way_18to4way_19"/>
    </vehicle>
    <vehicle id="65" depart="23.21">
        <route edges="36_3way_57to3way_58 38_3way_58to3way_59 40_3way_59to3way_60 43_3way_60to3way_61 45_3way_61to3way_62 34_3way_62to3way_55 28_3way_55to3way_47 22_3way_47to3way_39 18_3way_39to3way_31"/>
    </vehicle>
    <vehicle id="66" depart="23.57">
        <route edges="96_4way_50to4way_42"/>
    </vehicle>
    <vehicle id="67" depart="23.93">
        <route edges="84_4way_35to4way_34 85_4way_34to4way_42"/>
    </vehicle>
    <vehicle id="68" depart="24.28">
        <route edges="60_4way_17to4way_25 72_4way_25to4way_33 82_4way_33to4way_34 84_4way_34to4way_35"/>
    </vehicle>
    <vehicle id="69" depart="24.64">
        <route edges="7_3way_16to3way_24 14_3way_24to3way_32 20_3way_32to3way_40 26_3way_40to3way_48 31_3way_48to4way_49 104_4way_49to4way_50 105_4way_50to4way_51 106_4way_51to4way_52 107_4way_52to4way_53"/>
    </vehicle>
    <vehicle id="70" depart="25.00">
        <route edges="102_4way_53to4way_45 91_4way_45to4way_37 80_4way_37to4way_29 77_4way_29to4way_28 75_4way_28to4way_27 73_4way_27to4way_26 71_4way_26to4way_25"/>
    </vehicle>
    <vehicle id="71" depart="25.35">
        <route edges="54_4way_12to4way_13"/>
    </vehicle>
    <vehicle id="72" depart="25.71">
        <route edges="13_4way_22to3way_23 4_3way_23to3way_15"/>
    </vehicle>
    <vehicle id="73" depart="26.07">
        <route edges="103_4way_54to4way_46 92_4way_46to4way_38 81_4way_38to4way_30 70_4way_30to4way_22 58_4way_22to4way_14 56_4way_14to4way_13 54_4way_13to4way_12"/>
    </vehicle>
    <vehicle id="74" depart="26.43">
        <route edges="101_4way_45to4way_46 29_4way_46to3way_47 22_3way_47to3way_39 18_3way_39to3way_31"/>
    </vehicle>
    <vehicle id="75" depart="26.78">
        <route edges="53_4way_11to4way_19 65_4way_19to4way_27 76_4way_27to4way_35 86_4way_35to4way_36 88_4way_36to4way_37 90_4way_37to4way_38 23_4way_38to3way_39"/>
    </vehicle>
    <vehicle id="76" depart="27.14">
        <route edges="79_4way_29to4way_30 19_4way_30to3way_31 12_3way_31to3way_23"/>
    </vehicle>
    <vehicle id="77" depart="27.50">
        <route edges="85_4way_42to4way_34 74_4way_34to4way_26 63_4way_26to4way_18 50_4way_18to4way_10 49_4way_10to4way_11 52_4way_11to4way_12 54_4way_12to4way_13"/>
    </vehicle>
    <vehicle id="78" depart="27.85">
        <route edges="33_3way_5to4way_13 54_4way_13to4way_12 52_4way_12to4way_11 49_4way_11to4way_10 51_4way_10to4way_9"/>
    </vehicle>
    <vehicle id="79" depart="28.21">
        <route edges="83_4way_33to4way_41 94_4way_41to4way_49 104_4way_49to4way_50 105_4way_50to4way_51"/>
    </vehicle>
    <vehicle id="80" depart="28.57">
        <route edges="80_4way_37to4way_29 69_4way_29to4way_21 66_4way_21to4way_20"/>
    </vehicle>
    <vehicle id="81" depart="28.93">
        <route edges="91_4way_37to4way_45 101_4way_45to4way_46"/>
    </vehicle>
    <vehicle id="82" depart="29.28">
        <route edges="7_3way_24to3way_16 8_3way_16to3way_8 2_3way_8to3way_1"/>
    </vehicle>
    <vehicle id="83" depart="29.64">
        <route edges="22_3way_47to3way_39 18_3way_39to3way_31 12_3way_31to3way_23 13_3way_23to4way_22 68_4way_22to4way_21 66_4way_21to4way_20"/>
    </vehicle>
    <vehicle id="84" depart="30.00">
        <route edges="16_3way_4to3way_3 10_3way_3to3way_2 11_3way_2to4way_10 50_4way_10to4way_18"/>
    </vehicle>
    <vehicle id="85" depart="30.35">
        <route edges="11_3way_2to4way_10 50_4way_10to4way_18 63_4way_18to4way_26 73_4way_26to4way_27 75_4way_27to4way_28 77_4way_28to4way_29 79_4way_29to4way_30 19_4way_30to3way_31 18_3way_31to3way_39 22_3way_39to3way_47 28_3way_47to3way_55"/>
    </vehicle>
    <vehicle id="86" depart="30.71">
        <route edges="46_3way_61to4way_53 107_4way_53to4way_52"/>
    </vehicle>
    <vehicle id="87" depart="31.07">
        <route edges="70_4way_22to4way_30 81_4way_30to4way_38 90_4way_38to4way_37 88_4way_37to4way_36 86_4way_36to4way_35 84_4way_35to4way_34 82_4way_34to4way_33 21_4way_33to3way_32"/>
    </vehicle>
    <vehicle id="88" depart="31.43">
        <route edges="11_3way_2to4way_10 49_4way_10to4way_11 52_4way_11to4way_12"/>
    </vehicle>
    <vehicle id="89" depart="31.78">
        <route edges="65_4way_19to4way_27 76_4way_27to4way_35 86_4way_35to4way_36 88_4way_36to4way_37 90_4way_37to4way_38 23_4way_38to3way_39"/>
    </vehicle>
    <vehicle id="90" depart="32.14">
        <route edges="44_3way_60to4way_52 100_4way_52to4way_44 97_4way_44to4way_43 95_4way_43to4way_42"/>
    </vehicle>
    <vehicle id="91" depart="32.50">
        <route edges="53_4way_11to4way_19 65_4way_19to4way_27 75_4way_27to4way_28 77_4way_28to4way_29 79_4way_29to4way_30"/>
    </vehicle>
    <vehicle id="92" depart="32.85">
        <route edges="96_4way_50to4way_42 85_4way_42to4way_34 74_4way_34to4way_26"/>
    </vehicle>
    <vehicle id="93" depart="33.21">
        <route edges="31_3way_48to4way_49 104_4way_49to4way_50 105_4way_50to4way_51 106_4way_51to4way_52 100_4way_52to4way_44 89_4way_44to4way_36 78_4way_36to4way_28 67_4way_28to4way_20"/>
    </vehicle>
    <vehicle id="94" depart="33.57">
        <route edges="47_3way_62to4way_54 103_4way_54to4way_46 92_4way_46to4way_38 81_4way_38to4way_30 70_4way_30to4way_22 58_4way_22to4way_14 56_4way_14to4way_13 54_4way_13to4way_12 52_4way_12to4way_11 49_4way_11to4way_10 51_4way_10to4way_9 48_4way_9to3way_8"/>
    </vehicle>
    <vehicle id="95" depart="33.92">
        <route edges="81_4way_30to4way_38 92_4way_38to4way_46 103_4way_46to4way_54 35_4way_54to3way_55"/>
    </vehicle>
    <vehicle id="96" depart="34.28">
        <route edges="104_4way_49to4way_50 105_4way_50to4way_51 106_4way_51to4way_52 100_4way_52to4way_44 89_4way_44to4way_36 78_4way_36to4way_28"/>
    </vehicle>
    <vehicle id="97" depart="34.64">
        <route edges="40_3way_59to3way_60 43_3way_60to3way_61"/>
    </vehicle>
    <vehicle id="98" depart="35.00">
        <route edges="71_4way_25to4way_26 63_4way_26to4way_18 50_4way_18to4way_10 11_4way_10to3way_2 10_3way_2to3way_3 16_3way_3to3way_4"/>
    </vehicle>
    <vehicle id="99" depart="35.35">
        <route edges="105_4way_51to4way_50 104_4way_50to4way_49 31_4way_49to3way_48"/>
    </vehicle>
    <vehicle id="100" depart="35.71">
        <route edges="29_3way_47to4way_46 101_4way_46to4way_45 99_4way_45to4way_44 97_4way_44to4way_43 95_4way_43to4way_42 93_4way_42to4way_41 27_4way_41to3way_40 20_3way_40to3way_32 14_3way_32to3way_24 7_3way_24to3way_16"/>
    </vehicle>
    <vehicle id="101" depart="36.07">
        <route edges="24_3way_5to3way_4 16_3way_4to3way_3 10_3way_3to3way_2"/>
    </vehicle>
    <vehicle id="102" depart="36.42">
        <route edges="83_4way_33to4way_41 93_4way_41to4way_42 95_4way_42to4way_43"/>
    </vehicle>
    <vehicle id="103" depart="36.78">
        <route edges="102_4way_53to4way_45 91_4way_45to4way_37 80_4way_37to4way_29 77_4way_29to4way_28 75_4way_28to4way_27 73_4way_27to4way_26"/>
    </vehicle>
    <vehicle id="104" depart="37.14">
        <route edges="45_3way_61to3way_62 47_3way_62to4way_54"/>
    </vehicle>
    <vehicle id="105" depart="37.50">
        <route edges="41_3way_59to4way_51 98_4way_51to4way_43 87_4way_43to4way_35"/>
    </vehicle>
    <vehicle id="106" depart="37.85">
        <route edges="78_4way_36to4way_28 67_4way_28to4way_20 55_4way_20to4way_12 25_4way_12to3way_4 16_3way_4to3way_3 10_3way_3to3way_2"/>
    </vehicle>
    <vehicle id="107" depart="38.21">
        <route edges="8_3way_8to3way_16 7_3way_16to3way_24 14_3way_24to3way_32 20_3way_32to3way_40"/>
    </vehicle>
    <vehicle id="108" depart="38.57">
        <route edges="66_4way_21to4way_20 64_4way_20to4way_19 62_4way_19to4way_18 63_4way_18to4way_26 74_4way_26to4way_34 85_4way_34to4way_42 96_4way_42to4way_50"/>
    </vehicle>
    <vehicle id="109" depart="38.92">
        <route edges="91_4way_45to4way_37 80_4way_37to4way_29 69_4way_29to4way_21 66_4way_21to4way_20 64_4way_20to4way_19"/>
    </vehicle>
    <vehicle id="110" depart="39.28">
        <route edges="44_4way_52to3way_60 40_3way_60to3way_59 38_3way_59to3way_58"/>
    </vehicle>
    <vehicle id="111" depart="39.64">
        <route edges="92_4way_38to4way_46 103_4way_46to4way_54 35_4way_54to3way_55"/>
    </vehicle>
    <vehicle id="112" depart="40.00">
        <route edges="47_3way_62to4way_54 108_4way_54to4way_53 107_4way_53to4way_52 106_4way_52to4way_51"/>
    </vehicle>
    <vehicle id="113" depart="40.35">
        <route edges="67_4way_20to4way_28 77_4way_28to4way_29 79_4way_29to4way_30"/>
    </vehicle>
    <vehicle id="114" depart="40.71">
        <route edges="45_3way_62to3way_61 43_3way_61to3way_60 40_3way_60to3way_59"/>
    </vehicle>
    <vehicle id="115" depart="41.07">
        <route edges="11_3way_2to4way_10 50_4way_10to4way_18"/>
    </vehicle>
    <vehicle id="116" depart="41.42">
        <route edges="60_4way_17to4way_25 71_4way_25to4way_26 73_4way_26to4way_27 75_4way_27to4way_28 77_4way_28to4way_29 80_4way_29to4way_37 91_4way_37to4way_45 102_4way_45to4way_53 46_4way_53to3way_61 45_3way_61to3way_62"/>
    </vehicle>
    <vehicle id="117" depart="41.78">
        <route edges="21_4way_33to3way_32 14_3way_32to3way_24 7_3way_24to3way_16"/>
    </vehicle>
    <vehicle id="118" depart="42.14">
        <route edges="39_4way_50to3way_58"/>
    </vehicle>
    <vehicle id="119" depart="42.50">
        <route edges="13_3way_23to4way_22 68_4way_22to4way_21 69_4way_21to4way_29 80_4way_29to4way_37"/>
    </vehicle>
    <vehicle id="120" depart="42.85">
        <route edges="13_3way_23to4way_22 68_4way_22to4way_21 66_4way_21to4way_20 64_4way_20to4way_19 62_4way_19to4way_18"/>
    </vehicle>
    <vehicle id="121" depart="43.21">
        <route edges="8_3way_8to3way_16 9_3way_16to4way_17 59_4way_17to4way_18 62_4way_18to4way_19 64_4way_19to4way_20"/>
    </vehicle>
    <vehicle id="122" depart="43.57">
        <route edges="22_3way_47to3way_39 23_3way_39to4way_38 90_4way_38to4way_37 88_4way_37to4way_36 86_4way_36to4way_35 84_4way_35to4way_34"/>
    </vehicle>
    <vehicle id="123" depart="43.92">
        <route edges="104_4way_49to4way_50 105_4way_50to4way_51 106_4way_51to4way_52 107_4way_52to4way_53 108_4way_53to4way_54 35_4way_54to3way_55 28_3way_55to3way_47 22_3way_47to3way_39 18_3way_39to3way_31"/>
    </vehicle>
    <vehicle id="124" depart="44.28">
        <route edges="79_4way_30to4way_29 77_4way_29to4way_28 75_4way_28to4way_27 73_4way_27to4way_26 71_4way_26to4way_25 15_4way_25to3way_24"/>
    </vehicle>
    <vehicle id="125" depart="44.64">
        <route edges="78_4way_28to4way_36"/>
    </vehicle>
    <vehicle id="126" depart="45.00">
        <route edges="42_3way_6to4way_14"/>
    </vehicle>
    <vehicle id="127" depart="45.35">
        <route edges="96_4way_50to4way_42 85_4way_42to4way_34"/>
    </vehicle>
    <vehicle id="128" depart="45.71">
        <route edges="36_3way_57to3way_58 38_3way_58to3way_59 40_3way_59to3way_60 43_3way_60to3way_61 45_3way_61to3way_62 47_3way_62to4way_54 103_4way_54to4way_46 92_4way_46to4way_38"/>
    </vehicle>
    <vehicle id="129" depart="46.07">
        <route edges="6_3way_15to4way_14 56_4way_14to4way_13 54_4way_13to4way_12 55_4way_12to4way_20 67_4way_20to4way_28 78_4way_28to4way_36 89_4way_36to4way_44 100_4way_44to4way_52 44_4way_52to3way_60"/>
    </vehicle>
    <vehicle id="130" depart="46.42">
        <route edges="58_4way_22to4way_14 42_4way_14to3way_6 32_3way_6to3way_5 24_3way_5to3way_4 16_3way_4to3way_3 10_3way_3to3way_2 1_3way_2to3way_1"/>
    </vehicle>
    <vehicle id="131" depart="46.78">
        <route edges="100_4way_52to4way_44 97_4way_44to4way_43"/>
    </vehicle>
    <vehicle id="132" depart="47.14">
        <route edges="39_4way_50to3way_58"/>
    </vehicle>
    <vehicle id="133" depart="47.49">
        <route edges="104_4way_49to4way_50 96_4way_50to4way_42 85_4way_42to4way_34 74_4way_34to4way_26 63_4way_26to4way_18 50_4way_18to4way_10 11_4way_10to3way_2 10_3way_2to3way_3 16_3way_3to3way_4"/>
    </vehicle>
    <vehicle id="134" depart="47.85">
        <route edges="101_4way_45to4way_46"/>
    </vehicle>
    <vehicle id="135" depart="48.21">
        <route edges="90_4way_38to4way_37 88_4way_37to4way_36 86_4way_36to4way_35 84_4way_35to4way_34 82_4way_34to4way_33 21_4way_33to3way_32"/>
    </vehicle>
    <vehicle id="136" depart="48.57">
        <route edges="79_4way_30to4way_29 80_4way_29to4way_37 91_4way_37to4way_45 102_4way_45to4way_53 46_4way_53to3way_61"/>
    </vehicle>
    <vehicle id="137" depart="48.92">
        <route edges="107_4way_52to4way_53 108_4way_53to4way_54 103_4way_54to4way_46 92_4way_46to4way_38 81_4way_38to4way_30"/>
    </vehicle>
    <vehicle id="138" depart="49.28">
        <route edges="91_4way_45to4way_37 80_4way_37to4way_29 69_4way_29to4way_21 66_4way_21to4way_20 64_4way_20to4way_19"/>
    </vehicle>
    <vehicle id="139" depart="49.64">
        <route edges="77_4way_29to4way_28 75_4way_28to4way_27 73_4way_27to4way_26 71_4way_26to4way_25 72_4way_25to4way_33 83_4way_33to4way_41 94_4way_41to4way_49 37_4way_49to3way_57"/>
    </vehicle>
    <vehicle id="140" depart="49.99">
        <route edges="3_3way_1to4way_9 61_4way_9to4way_17 59_4way_17to4way_18 62_4way_18to4way_19"/>
    </vehicle>
    <vehicle id="141" depart="50.35">
        <route edges="19_3way_31to4way_30 79_4way_30to4way_29 77_4way_29to4way_28 75_4way_28to4way_27 73_4way_27to4way_26 71_4way_26to4way_25 15_4way_25to3way_24 14_3way_24to3way_32"/>
    </vehicle>
    <vehicle id="142" depart="50.71">
        <route edges="93_4way_41to4way_42 95_4way_42to4way_43 97_4way_43to4way_44 99_4way_44to4way_45 101_4way_45to4way_46"/>
    </vehicle>
    <vehicle id="143" depart="51.07">
        <route edges="73_4way_27to4way_26 71_4way_26to4way_25 72_4way_25to4way_33 83_4way_33to4way_41 94_4way_41to4way_49"/>
    </vehicle>
    <vehicle id="144" depart="51.42">
        <route edges="19_3way_31to4way_30 79_4way_30to4way_29 77_4way_29to4way_28 75_4way_28to4way_27 73_4way_27to4way_26 71_4way_26to4way_25 15_4way_25to3way_24 7_3way_24to3way_16"/>
    </vehicle>
    <vehicle id="145" depart="51.78">
        <route edges="28_3way_55to3way_47 22_3way_47to3way_39 18_3way_39to3way_31 12_3way_31to3way_23 13_3way_23to4way_22 68_4way_22to4way_21"/>
    </vehicle>
    <vehicle id="146" depart="52.14">
        <route edges="46_3way_61to4way_53 102_4way_53to4way_45 91_4way_45to4way_37 80_4way_37to4way_29 69_4way_29to4way_21 57_4way_21to4way_13 54_4way_13to4way_12 52_4way_12to4way_11 49_4way_11to4way_10"/>
    </vehicle>
    <vehicle id="147" depart="52.49">
        <route edges="90_4way_37to4way_38 81_4way_38to4way_30 70_4way_30to4way_22 58_4way_22to4way_14 42_4way_14to3way_6"/>
    </vehicle>
    <vehicle id="148" depart="52.85">
        <route edges="92_4way_38to4way_46"/>
    </vehicle>
    <vehicle id="149" depart="53.21">
        <route edges="99_4way_44to4way_45 101_4way_45to4way_46 92_4way_46to4way_38 81_4way_38to4way_30 70_4way_30to4way_22 58_4way_22to4way_14"/>
    </vehicle>
    <vehicle id="150" depart="53.57">
        <route edges="24_3way_5to3way_4 16_3way_4to3way_3 10_3way_3to3way_2 1_3way_2to3way_1 2_3way_1to3way_8 8_3way_8to3way_16 7_3way_16to3way_24 14_3way_24to3way_32 20_3way_32to3way_40"/>
    </vehicle>
    <vehicle id="151" depart="53.92">
        <route edges="46_3way_61to4way_53 102_4way_53to4way_45 91_4way_45to4way_37 80_4way_37to4way_29 69_4way_29to4way_21 57_4way_21to4way_13 54_4way_13to4way_12 52_4way_12to4way_11 49_4way_11to4way_10 51_4way_10to4way_9"/>
    </vehicle>
    <vehicle id="152" depart="54.28">
        <route edges="25_3way_4to4way_12 55_4way_12to4way_20 66_4way_20to4way_21 68_4way_21to4way_22 13_4way_22to3way_23"/>
    </vehicle>
    <vehicle id="153" depart="54.64">
        <route edges="3_3way_1to4way_9 61_4way_9to4way_17 59_4way_17to4way_18 62_4way_18to4way_19 64_4way_19to4way_20"/>
    </vehicle>
    <vehicle id="154" depart="54.99">
        <route edges="19_3way_31to4way_30 79_4way_30to4way_29 77_4way_29to4way_28 78_4way_28to4way_36 89_4way_36to4way_44"/>
    </vehicle>
    <vehicle id="155" depart="55.35">
        <route edges="32_3way_6to3way_5"/>
    </vehicle>
    <vehicle id="156" depart="55.71">
        <route edges="44_3way_60to4way_52 100_4way_52to4way_44 97_4way_44to4way_43"/>
    </vehicle>
    <vehicle id="157" depart="56.07">
        <route edges="74_4way_34to4way_26 63_4way_26to4way_18 59_4way_18to4way_17"/>
    </vehicle>
    <vehicle id="158" depart="56.42">
        <route edges="67_4way_20to4way_28 78_4way_28to4way_36 88_4way_36to4way_37"/>
    </vehicle>
    <vehicle id="159" depart="56.78">
        <route edges="13_3way_23to4way_22 68_4way_22to4way_21 66_4way_21to4way_20 67_4way_20to4way_28 78_4way_28to4way_36 89_4way_36to4way_44 100_4way_44to4way_52 44_4way_52to3way_60 40_3way_60to3way_59 38_3way_59to3way_58"/>
    </vehicle>
    <vehicle id="160" depart="57.14">
        <route edges="31_3way_48to4way_49 104_4way_49to4way_50 105_4way_50to4way_51 106_4way_51to4way_52 100_4way_52to4way_44 89_4way_44to4way_36 78_4way_36to4way_28 67_4way_28to4way_20 55_4way_20to4way_12 25_4way_12to3way_4"/>
    </vehicle>
    <vehicle id="161" depart="57.49">
        <route edges="83_4way_33to4way_41 94_4way_41to4way_49 37_4way_49to3way_57 36_3way_57to3way_58 38_3way_58to3way_59"/>
    </vehicle>
    <vehicle id="162" depart="57.85">
        <route edges="98_4way_51to4way_43"/>
    </vehicle>
    <vehicle id="163" depart="58.21">
        <route edges="7_3way_16to3way_24 14_3way_24to3way_32 20_3way_32to3way_40 26_3way_40to3way_48 30_3way_48to3way_57"/>
    </vehicle>
    <vehicle id="164" depart="58.56">
        <route edges="107_4way_52to4way_53 108_4way_53to4way_54 35_4way_54to3way_55 28_3way_55to3way_47"/>
    </vehicle>
    <vehicle id="165" depart="58.92">
        <route edges="106_4way_51to4way_52 100_4way_52to4way_44 89_4way_44to4way_36 78_4way_36to4way_28 67_4way_28to4way_20 55_4way_20to4way_12 25_4way_12to3way_4"/>
    </vehicle>
    <vehicle id="166" depart="59.28">
        <route edges="7_3way_16to3way_24 14_3way_24to3way_32 20_3way_32to3way_40 26_3way_40to3way_48 30_3way_48to3way_57 36_3way_57to3way_58 38_3way_58to3way_59"/>
    </vehicle>
    <vehicle id="167" depart="59.64">
        <route edges="39_3way_58to4way_50"/>
    </vehicle>
    <vehicle id="168" depart="59.99">