<routes xmlns:xsi="http://www.w3.org/2001/XMLSchema-instance" xsi:noNamespaceSchemaLocation="http://sumo.dlr.de/xsd/routes_file.xsd">
<trip id="0" depart="0.0" fromJunction="4way_12" toJunction="4way_26"/>
<trip id="1" depart="0.3571" fromJunction="4way_26" toJunction="4way_11"/>
<trip id="2" depart="0.7142" fromJunction="4way_27" toJunction="4way_17"/>
<trip id="3" depart="1.0713" fromJunction="4way_53" toJunction="4way_25"/>
<trip id="4" depart="1.4284" fromJunction="3way_8" toJunction="4way_38"/>
<trip id="5" depart="1.7854999999999999" fromJunction="4way_18" toJunction="4way_52"/>
<trip id="6" depart="2.1426" fromJunction="4way_22" toJunction="4way_42"/>
<trip id="7" depart="2.4997" fromJunction="3way_6" toJunction="3way_5"/>
<trip id="8" depart="2.8568" fromJunction="4way_21" toJunction="3way_2"/>
<trip id="9" depart="3.2138999999999998" fromJunction="4way_45" toJunction="4way_44"/>
<trip id="10" depart="3.5709999999999997" fromJunction="4way_52" toJunction="4way_46"/>
<trip id="11" depart="3.9280999999999997" fromJunction="4way_44" toJunction="4way_33"/>
<trip id="12" depart="4.2852" fromJunction="4way_27" toJunction="3way_23"/>
<trip id="13" depart="4.6423" fromJunction="4way_30" toJunction="3way_31"/>
<trip id="14" depart="4.9994" fromJunction="4way_9" toJunction="4way_18"/>
<trip id="15" depart="5.3565" fromJunction="4way_44" toJunction="3way_59"/>
<trip id="16" depart="5.7136" fromJunction="4way_42" toJunction="4way_33"/>
<trip id="17" depart="6.0706999999999995" fromJunction="4way_19" toJunction="3way_2"/>
<trip id="18" depart="6.4277999999999995" fromJunction="4way_19" toJunction="4way_11"/>
<trip id="19" depart="6.7848999999999995" fromJunction="4way_43" toJunction="4way_30"/>
<trip id="20" depart="7.1419999999999995" fromJunction="4way_25" toJunction="3way_24"/>
<trip id="21" depart="7.499099999999999" fromJunction="3way_4" toJunction="4way_51"/>
<trip id="22" depart="7.856199999999999" fromJunction="3way_23" toJunction="3way_62"/>
<trip id="23" depart="8.2133" fromJunction="3way_24" toJunction="3way_48"/>
<trip id="24" depart="8.5704" fromJunction="4way_25" toJunction="4way_42"/>
<trip id="25" depart="8.927499999999998" fromJunction="3way_15" toJunction="4way_54"/>
<trip id="26" depart="9.2846" fromJunction="3way_39" toJunction="3way_62"/>
<trip id="27" depart="9.6417" fromJunction="3way_59" toJunction="4way_35"/>
<trip id="28" depart="9.9988" fromJunction="3way_60" toJunction="4way_33"/>
<trip id="29" depart="10.355899999999998" fromJunction="3way_15" toJunction="3way_39"/>
<trip id="30" depart="10.713" fromJunction="3way_31" toJunction="4way_35"/>
<trip id="31" depart="11.0701" fromJunction="3way_16" toJunction="3way_55"/>
<trip id="32" depart="11.4272" fromJunction="3way_6" toJunction="4way_21"/>
<trip id="33" depart="11.784299999999998" fromJunction="3way_6" toJunction="4way_29"/>
<trip id="34" depart="12.141399999999999" fromJunction="4way_41" toJunction="4way_46"/>
<trip id="35" depart="12.4985" fromJunction="4way_11" toJunction="4way_46"/>
<trip id="36" depart="12.855599999999999" fromJunction="3way_3" toJunction="4way_28"/>
<trip id="37" depart="13.212699999999998" fromJunction="3way_23" toJunction="3way_58"/>
<trip id="38" depart="13.569799999999999" fromJunction="3way_23" toJunction="3way_57"/>
<trip id="39" depart="13.9269" fromJunction="4way_9" toJunction="3way_40"/>
<trip id="40" depart="14.283999999999999" fromJunction="4way_51" toJunction="3way_4"/>
<trip id="41" depart="14.641099999999998" fromJunction="3way_59" toJunction="4way_34"/>
<trip id="42" depart="14.998199999999999" fromJunction="3way_6" toJunction="4way_18"/>
<trip id="43" depart="15.3553" fromJunction="4way_22" toJunction="4way_42"/>
<trip id="44" depart="15.712399999999999" fromJunction="4way_43" toJunction="3way_40"/>
<trip id="45" depart="16.069499999999998" fromJunction="4way_12" toJunction="3way_23"/>
<trip id="46" depart="16.4266" fromJunction="3way_47" toJunction="3way_57"/>
<trip id="47" depart="16.7837" fromJunction="3way_2" toJunction="4way_50"/>
<trip id="48" depart="17.1408" fromJunction="3way_1" toJunction="4way_21"/>
<trip id="49" depart="17.497899999999998" fromJunction="3way_58" toJunction="4way_43"/>
<trip id="50" depart="17.854999999999997" fromJunction="4way_38" toJunction="4way_28"/>
<trip id="51" depart="18.2121" fromJunction="4way_42" toJunction="3way_60"/>
<trip id="52" depart="18.5692" fromJunction="4way_42" toJunction="4way_50"/>
<trip id="53" depart="18.926299999999998" fromJunction="4way_38" toJunction="3way_61"/>
<trip id="54" depart="19.2834" fromJunction="4way_29" toJunction="4way_25"/>
<trip id="55" depart="19.6405" fromJunction="3way_57" toJunction="4way_51"/>
<trip id="56" depart="19.9976" fromJunction="3way_8" toJunction="4way_13"/>
<trip id="57" depart="20.354699999999998" fromJunction="4way_42" toJunction="4way_45"/>
<trip id="58" depart="20.711799999999997" fromJunction="4way_51" toJunction="4way_45"/>
<trip id="59" depart="21.0689" fromJunction="4way_10" toJunction="4way_20"/>
<trip id="60" depart="21.426" fromJunction="4way_27" toJunction="4way_38"/>
<trip id="61" depart="21.783099999999997" fromJunction="4way_11" toJunction="4way_17"/>
<trip id="62" depart="22.1402" fromJunction="3way_48" toJunction="3way_2"/>
<trip id="63" depart="22.4973" fromJunction="3way_57" toJunction="4way_35"/>
<trip id="64" depart="22.8544" fromJunction="4way_17" toJunction="4way_19"/>
<trip id="65" depart="23.211499999999997" fromJunction="3way_57" toJunction="3way_31"/>
<trip id="66" depart="23.568599999999996" fromJunction="4way_50" toJunction="4way_42"/>
<trip id="67" depart="23.9257" fromJunction="4way_35" toJunction="4way_42"/>
<trip id="68" depart="24.282799999999998" fromJunction="4way_17" toJunction="4way_35"/>
<trip id="69" depart="24.639899999999997" fromJunction="3way_16" toJunction="4way_53"/>
<trip id="70" depart="24.997" fromJunction="4way_53" toJunction="4way_25"/>
<trip id="71" depart="25.3541" fromJunction="4way_12" toJunction="4way_13"/>
<trip id="72" depart="25.711199999999998" fromJunction="4way_22" toJunction="3way_15"/>
<trip id="73" depart="26.068299999999997" fromJunction="4way_54" toJunction="4way_12"/>
<trip id="74" depart="26.425399999999996" fromJunction="4way_45" toJunction="3way_31"/>
<trip id="75" depart="26.7825" fromJunction="4way_11" toJunction="3way_39"/>
<trip id="76" depart="27.139599999999998" fromJunction="4way_29" toJunction="3way_23"/>
<trip id="77" depart="27.496699999999997" fromJunction="4way_42" toJunction="4way_13"/>
<trip id="78" depart="27.8538" fromJunction="3way_5" toJunction="4way_9"/>
<trip id="79" depart="28.2109" fromJunction="4way_33" toJunction="4way_51"/>
<trip id="80" depart="28.567999999999998" fromJunction="4way_37" toJunction="4way_20"/>
<trip id="81" depart="28.925099999999997" fromJunction="4way_37" toJunction="4way_46"/>
<trip id="82" depart="29.282199999999996" fromJunction="3way_24" toJunction="3way_1"/>
<trip id="83" depart="29.6393" fromJunction="3way_47" toJunction="4way_20"/>
<trip id="84" depart="29.996399999999998" fromJunction="3way_4" toJunction="4way_18"/>
<trip id="85" depart="30.353499999999997" fromJunction="3way_2" toJunction="3way_55"/>
<trip id="86" depart="30.7106" fromJunction="3way_61" toJunction="4way_52"/>
<trip id="87" depart="31.0677" fromJunction="4way_22" toJunction="3way_32"/>
<trip id="88" depart="31.424799999999998" fromJunction="3way_2" toJunction="4way_12"/>
<trip id="89" depart="31.781899999999997" fromJunction="4way_19" toJunction="3way_39"/>
<trip id="90" depart="32.138999999999996" fromJunction="3way_60" toJunction="4way_42"/>
<trip id="91" depart="32.4961" fromJunction="4way_11" toJunction="4way_30"/>
<trip id="92" depart="32.8532" fromJunction="4way_50" toJunction="4way_26"/>
<trip id="93" depart="33.2103" fromJunction="3way_48" toJunction="4way_20"/>
<trip id="94" depart="33.5674" fromJunction="3way_62" toJunction="3way_8"/>
<trip id="95" depart="33.924499999999995" fromJunction="4way_30" toJunction="3way_55"/>
<trip id="96" depart="34.2816" fromJunction="4way_49" toJunction="4way_28"/>
<trip id="97" depart="34.6387" fromJunction="3way_59" toJunction="3way_61"/>
<trip id="98" depart="34.995799999999996" fromJunction="4way_25" toJunction="3way_4"/>
<trip id="99" depart="35.3529" fromJunction="4way_51" toJunction="3way_48"/>
<trip id="100" depart="35.709999999999994" fromJunction="3way_47" toJunction="3way_16"/>
<trip id="101" depart="36.067099999999996" fromJunction="3way_5" toJunction="3way_2"/>
<trip id="102" depart="36.4242" fromJunction="4way_33" toJunction="4way_43"/>
<trip id="103" depart="36.781299999999995" fromJunction="4way_53" toJunction="4way_26"/>
<trip id="104" depart="37.1384" fromJunction="3way_61" toJunction="4way_54"/>
<trip id="105" depart="37.4955" fromJunction="3way_59" toJunction="4way_35"/>
<trip id="106" depart="37.852599999999995" fromJunction="4way_36" toJunction="3way_2"/>
<trip id="107" depart="38.2097" fromJunction="3way_8" toJunction="3way_40"/>
<trip id="108" depart="38.5668" fromJunction="4way_21" toJunction="4way_50"/>
<trip id="109" depart="38.923899999999996" fromJunction="4way_45" toJunction="4way_19"/>
<trip id="110" depart="39.281" fromJunction="4way_52" toJunction="3way_58"/>
<trip id="111" depart="39.638099999999994" fromJunction="4way_38" toJunction="3way_55"/>
<trip id="112" depart="39.9952" fromJunction="3way_62" toJunction="4way_51"/>
<trip id="113" depart="40.3523" fromJunction="4way_20" toJunction="4way_30"/>
<trip id="114" depart="40.709399999999995" fromJunction="3way_62" toJunction="3way_59"/>
<trip id="115" depart="41.0665" fromJunction="3way_2" toJunction="4way_18"/>
<trip id="116" depart="41.42359999999999" fromJunction="4way_17" toJunction="3way_62"/>
<trip id="117" depart="41.780699999999996" fromJunction="4way_33" toJunction="3way_16"/>
<trip id="118" depart="42.1378" fromJunction="4way_50" toJunction="3way_58"/>
<trip id="119" depart="42.494899999999994" fromJunction="3way_23" toJunction="4way_37"/>
<trip id="120" depart="42.852" fromJunction="3way_23" toJunction="4way_18"/>
<trip id="121" depart="43.2091" fromJunction="3way_8" toJunction="4way_20"/>
<trip id="122" depart="43.566199999999995" fromJunction="3way_47" toJunction="4way_34"/>
<trip id="123" depart="43.9233" fromJunction="4way_49" toJunction="3way_31"/>
<trip id="124" depart="44.2804" fromJunction="4way_30" toJunction="3way_24"/>
<trip id="125" depart="44.637499999999996" fromJunction="4way_28" toJunction="4way_36"/>
<trip id="126" depart="44.9946" fromJunction="3way_6" toJunction="4way_14"/>
<trip id="127" depart="45.351699999999994" fromJunction="4way_50" toJunction="4way_34"/>
<trip id="128" depart="45.7088" fromJunction="3way_57" toJunction="4way_38"/>
<trip id="129" depart="46.0659" fromJunction="3way_15" toJunction="3way_60"/>
<trip id="130" depart="46.422999999999995" fromJunction="4way_22" toJunction="3way_1"/>
<trip id="131" depart="46.7801" fromJunction="4way_52" toJunction="4way_43"/>
<trip id="132" depart="47.13719999999999" fromJunction="4way_50" toJunction="3way_58"/>
<trip id="133" depart="47.494299999999996" fromJunction="4way_49" toJunction="3way_4"/>
<trip id="134" depart="47.8514" fromJunction="4way_45" toJunction="4way_46"/>
<trip id="135" depart="48.208499999999994" fromJunction="4way_38" toJunction="3way_32"/>
<trip id="136" depart="48.565599999999996" fromJunction="4way_30" toJunction="3way_61"/>
<trip id="137" depart="48.9227" fromJunction="4way_52" toJunction="4way_30"/>
<trip id="138" depart="49.279799999999994" fromJunction="4way_45" toJunction="4way_19"/>
<trip id="139" depart="49.6369" fromJunction="4way_29" toJunction="3way_57"/>
<trip id="140" depart="49.994" fromJunction="3way_1" toJunction="4way_19"/>
<trip id="141" depart="50.351099999999995" fromJunction="3way_31" toJunction="3way_32"/>
<trip id="142" depart="50.7082" fromJunction="4way_41" toJunction="4way_46"/>
<trip id="143" depart="51.06529999999999" fromJunction="4way_27" toJunction="4way_49"/>
<trip id="144" depart="51.422399999999996" fromJunction="3way_31" toJunction="3way_16"/>
<trip id="145" depart="51.7795" fromJunction="3way_55" toJunction="4way_21"/>
<trip id="146" depart="52.136599999999994" fromJunction="3way_61" toJunction="4way_10"/>
<trip id="147" depart="52.4937" fromJunction="4way_37" toJunction="3way_6"/>
<trip id="148" depart="52.85079999999999" fromJunction="4way_38" toJunction="4way_46"/>
<trip id="149" depart="53.207899999999995" fromJunction="4way_44" toJunction="4way_14"/>
<trip id="150" depart="53.565" fromJunction="3way_5" toJunction="3way_40"/>
<trip id="151" depart="53.92209999999999" fromJunction="3way_61" toJunction="4way_9"/>
<trip id="152" depart="54.279199999999996" fromJunction="3way_4" toJunction="3way_23"/>
<trip id="153" depart="54.6363" fromJunction="3way_1" toJunction="4way_20"/>
<trip id="154" depart="54.993399999999994" fromJunction="3way_31" toJunction="4way_44"/>
<trip id="155" depart="55.3505" fromJunction="3way_6" toJunction="3way_5"/>
<trip id="156" depart="55.7076" fromJunction="3way_60" toJunction="4way_43"/>
<trip id="157" depart="56.064699999999995" fromJunction="4way_34" toJunction="4way_17"/>
<trip id="158" depart="56.4218" fromJunction="4way_20" toJunction="4way_37"/>
<trip id="159" depart="56.77889999999999" fromJunction="3way_23" toJunction="3way_58"/>
<trip id="160" depart="57.135999999999996" fromJunction="3way_48" toJunction="3way_4"/>
<trip id="161" depart="57.4931" fromJunction="4way_33" toJunction="3way_59"/>
<trip id="162" depart="57.850199999999994" fromJunction="4way_51" toJunction="4way_43"/>
<trip id="163" depart="58.2073" fromJunction="3way_16" toJunction="3way_57"/>
<trip id="164" depart="58.56439999999999" fromJunction="4way_52" toJunction="3way_47"/>
<trip id="165" depart="58.921499999999995" fromJunction="4way_51" toJunction="3way_4"/>
<trip id="166" depart="59.2786" fromJunction="3way_16" toJunction="3way_59"/>
<trip id="167" depart="59.63569999999999" fromJunction="3way_58" toJunction="4way_50"/>
<trip id="168" depart="59.992799999999995" fromJunction="3way_55" toJunction="3way_16"/>
<trip id="169" depart="60.3499" fromJunction="3way_3" toJunction="4way_33"/>
<trip id="170" depart="60.706999999999994" fromJunction="3way_5" toJunction="4way_52"/>
<trip id="171" depart="61.064099999999996" fromJunction="3way_48" toJunction="4way_18"/>
<trip id="172" depart="61.4212" fromJunction="4way_38" toJunction="4way_42"/>
<trip id="173" depart="61.778299999999994" fromJunction="3way_3" toJunction="4way_27"/>
<trip id="174" depart="62.1354" fromJunction="4way_10" toJunction="4way_17"/>
<trip id="175" depart="62.49249999999999" fromJunction="4way_43" toJunction="4way_26"/>
<trip id="176" depart="62.849599999999995" fromJunction="3way_23" toJunction="3way_58"/>
<trip id="177" depart="63.2067" fromJunction="4way_38" toJunction="3way_8"/>
<trip id="178" depart="63.56379999999999" fromJunction="4way_14" toJunction="3way_55"/>
<trip id="179" depart="63.920899999999996" fromJunction="4way_33" toJunction="4way_26"/>
<trip id="180" depart="64.27799999999999" fromJunction="4way_33" toJunction="4way_45"/>
<trip id="181" depart="64.6351" fromJunction="3way_8" toJunction="4way_20"/>
<trip id="182" depart="64.9922" fromJunction="4way_51" toJunction="4way_14"/>
<trip id="183" depart="65.3493" fromJunction="3way_40" toJunction="4way_51"/>
<trip id="184" depart="65.7064" fromJunction="4way_27" toJunction="4way_36"/>
<trip id="185" depart="66.06349999999999" fromJunction="3way_39" toJunction="3way_60"/>
<trip id="186" depart="66.4206" fromJunction="4way_38" toJunction="4way_52"/>
<trip id="187" depart="66.7777" fromJunction="4way_50" toJunction="4way_33"/>
<trip id="188" depart="67.1348" fromJunction="4way_33" toJunction="4way_37"/>
<trip id="189" depart="67.4919" fromJunction="4way_42" toJunction="4way_38"/>
<trip id="190" depart="67.84899999999999" fromJunction="4way_14" toJunction="4way_21"/>
<trip id="191" depart="68.20609999999999" fromJunction="3way_39" toJunction="4way_13"/>
<trip id="192" depart="68.5632" fromJunction="3way_8" toJunction="4way_19"/>
<trip id="193" depart="68.9203" fromJunction="4way_17" toJunction="3way_4"/>
<trip id="194" depart="69.2774" fromJunction="4way_29" toJunction="3way_59"/>
<trip id="195" depart="69.63449999999999" fromJunction="4way_38" toJunction="3way_2"/>
<trip id="196" depart="69.99159999999999" fromJunction="3way_55" toJunction="3way_1"/>
<trip id="197" depart="70.3487" fromJunction="4way_22" toJunction="4way_9"/>
<trip id="198" depart="70.7058" fromJunction="4way_30" toJunction="3way_6"/>
<trip id="199" depart="71.0629" fromJunction="4way_33" toJunction="4way_45"/>
<trip id="200" depart="71.41999999999999" fromJunction="3way_61" toJunction="3way_40"/>
<trip id="201" depart="71.77709999999999" fromJunction="3way_2" toJunction="4way_11"/>
<trip id="202" depart="72.13419999999999" fromJunction="4way_17" toJunction="3way_1"/>
<trip id="203" depart="72.4913" fromJunction="3way_59" toJunction="3way_5"/>
<trip id="204" depart="72.8484" fromJunction="3way_59" toJunction="3way_61"/>
<trip id="205" depart="73.2055" fromJunction="3way_1" toJunction="3way_23"/>
<trip id="206" depart="73.56259999999999" fromJunction="4way_19" toJunction="3way_15"/>
<trip id="207" depart="73.91969999999999" fromJunction="4way_54" toJunction="4way_46"/>
<trip id="208" depart="74.2768" fromJunction="3way_39" toJunction="4way_9"/>
<trip id="209" depart="74.6339" fromJunction="4way_49" toJunction="4way_27"/>
<trip id="210" depart="74.991" fromJunction="3way_4" toJunction="4way_54"/>
<trip id="211" depart="75.34809999999999" fromJunction="3way_57" toJunction="4way_44"/>
<trip id="212" depart="75.70519999999999" fromJunction="4way_35" toJunction="3way_60"/>
<trip id="213" depart="76.0623" fromJunction="4way_35" toJunction="3way_60"/>
<trip id="214" depart="76.4194" fromJunction="4way_17" toJunction="4way_18"/>
<trip id="215" depart="76.7765" fromJunction="3way_57" toJunction="4way_34"/>
<trip id="216" depart="77.1336" fromJunction="4way_9" toJunction="4way_12"/>
<trip id="217" depart="77.49069999999999" fromJunction="4way_21" toJunction="3way_24"/>
<trip id="218" depart="77.84779999999999" fromJunction="3way_3" toJunction="4way_22"/>
<trip id="219" depart="78.2049" fromJunction="3way_32" toJunction="3way_61"/>
<trip id="220" depart="78.562" fromJunction="4way_54" toJunction="4way_13"/>
<trip id="221" depart="78.9191" fromJunction="4way_14" toJunction="4way_46"/>
<trip id="222" depart="79.27619999999999" fromJunction="4way_54" toJunction="3way_57"/>
<trip id="223" depart="79.63329999999999" fromJunction="3way_15" toJunction="3way_60"/>
<trip id="224" depart="79.9904" fromJunction="3way_60" toJunction="4way_38"/>
<trip id="225" depart="80.3475" fromJunction="3way_4" toJunction="4way_51"/>
<trip id="226" depart="80.7046" fromJunction="4way_45" toJunction="4way_20"/>
<trip id="227" depart="81.06169999999999" fromJunction="3way_16" toJunction="3way_58"/>
<trip id="228" depart="81.41879999999999" fromJunction="4way_28" toJunction="3way_16"/>
<trip id="229" depart="81.7759" fromJunction="3way_47" toJunction="3way_60"/>
<trip id="230" depart="82.133" fromJunction="3way_48" toJunction="4way_25"/>
<trip id="231" depart="82.4901" fromJunction="3way_60" toJunction="4way_29"/>
<trip id="232" depart="82.84719999999999" fromJunction="4way_30" toJunction="4way_10"/>
<trip id="233" depart="83.20429999999999" fromJunction="4way_45" toJunction="4way_27"/>
<trip id="234" depart="83.56139999999999" fromJunction="4way_36" toJunction="4way_30"/>
<trip id="235" depart="83.9185" fromJunction="4way_46" toJunction="4way_51"/>
<trip id="236" depart="84.2756" fromJunction="4way_33" toJunction="4way_54"/>
<trip id="237" depart="84.6327" fromJunction="3way_57" toJunction="3way_5"/>
<trip id="238" depart="84.98979999999999" fromJunction="4way_17" toJunction="3way_39"/>
<trip id="239" depart="85.34689999999999" fromJunction="4way_11" toJunction="3way_23"/>
<trip id="240" depart="85.704" fromJunction="4way_53" toJunction="3way_16"/>
<trip id="241" depart="86.0611" fromJunction="4way_26" toJunction="4way_46"/>
<trip id="242" depart="86.4182" fromJunction="4way_50" toJunction="3way_58"/>
<trip id="243" depart="86.77529999999999" fromJunction="4way_9" toJunction="4way_53"/>
<trip id="244" depart="87.13239999999999" fromJunction="3way_58" toJunction="4way_34"/>
<trip id="245" depart="87.48949999999999" fromJunction="4way_9" toJunction="4way_33"/>
<trip id="246" depart="87.8466" fromJunction="4way_10" toJunction="3way_60"/>
<trip id="247" depart="88.2037" fromJunction="3way_16" toJunction="3way_48"/>
<trip id="248" depart="88.5608" fromJunction="4way_36" toJunction="4way_18"/>
<trip id="249" depart="88.91789999999999" fromJunction="4way_22" toJunction="3way_32"/>
<trip id="250" depart="89.27499999999999" fromJunction="3way_3" toJunction="4way_37"/>
<trip id="251" depart="89.6321" fromJunction="4way_25" toJunction="3way_59"/>
<trip id="252" depart="89.9892" fromJunction="3way_32" toJunction="3way_15"/>
<trip id="253" depart="90.3463" fromJunction="4way_43" toJunction="4way_28"/>
<trip id="254" depart="90.70339999999999" fromJunction="4way_12" toJunction="4way_19"/>
<trip id="255" depart="91.06049999999999" fromJunction="3way_32" toJunction="3way_62"/>
<trip id="256" depart="91.4176" fromJunction="4way_45" toJunction="4way_43"/>
<trip id="257" depart="91.7747" fromJunction="3way_58" toJunction="4way_26"/>
<trip id="258" depart="92.1318" fromJunction="4way_12" toJunction="3way_2"/>
<trip id="259" depart="92.48889999999999" fromJunction="3way_16" toJunction="3way_1"/>
<trip id="260" depart="92.84599999999999" fromJunction="4way_22" toJunction="4way_18"/>
<trip id="261" depart="93.20309999999999" fromJunction="4way_9" toJunction="3way_6"/>
<trip id="262" depart="93.5602" fromJunction="3way_32" toJunction="3way_2"/>
<trip id="263" depart="93.9173" fromJunction="3way_58" toJunction="4way_19"/>
<trip id="264" depart="94.27439999999999" fromJunction="3way_15" toJunction="3way_62"/>
<trip id="265" depart="94.63149999999999" fromJunction="4way_51" toJunction="4way_42"/>
<trip id="266" depart="94.98859999999999" fromJunction="4way_30" toJunction="4way_43"/>
<trip id="267" depart="95.3457" fromJunction="4way_27" toJunction="3way_1"/>
<trip id="268" depart="95.7028" fromJunction="4way_50" toJunction="4way_11"/>
<trip id="269" depart="96.0599" fromJunction="3way_2" toJunction="4way_38"/>
<trip id="270" depart="96.41699999999999" fromJunction="4way_13" toJunction="4way_51"/>
<trip id="271" depart="96.77409999999999" fromJunction="3way_32" toJunction="4way_10"/>
<trip id="272" depart="97.13119999999999" fromJunction="3way_6" toJunction="4way_52"/>
<trip id="273" depart="97.4883" fromJunction="4way_18" toJunction="4way_25"/>
<trip id="274" depart="97.8454" fromJunction="3way_6" toJunction="4way_51"/>
<trip id="275" depart="98.20249999999999" fromJunction="4way_9" toJunction="3way_61"/>
<trip id="276" depart="98.55959999999999" fromJunction="4way_53" toJunction="4way_19"/>
<trip id="277" depart="98.91669999999999" fromJunction="3way_31" toJunction="4way_19"/>
<trip id="278" depart="99.2738" fromJunction="4way_45" toJunction="4way_46"/>
<trip id="279" depart="99.6309" fromJunction="4way_22" toJunction="4way_10"/>
<trip id="280" depart="99.988" fromJunction="4way_22" toJunction="4way_26"/>
<trip id="281" depart="100.34509999999999" fromJunction="4way_46" toJunction="4way_21"/>
<trip id="282" depart="100.70219999999999" fromJunction="3way_3" toJunction="4way_22"/>
<trip id="283" depart="101.0593" fromJunction="3way_8" toJunction="3way_47"/>
<trip id="284" depart="101.4164" fromJunction="3way_48" toJunction="4way_38"/>
<trip id="285" depart="101.7735" fromJunction="4way_53" toJunction="3way_39"/>
<trip id="286" depart="102.13059999999999" fromJunction="4way_14" toJunction="4way_25"/>
<trip id="287" depart="102.48769999999999" fromJunction="4way_35" toJunction="3way_39"/>
<trip id="288" depart="102.84479999999999" fromJunction="3way_5" toJunction="4way_25"/>
<trip id="289" depart="103.2019" fromJunction="3way_60" toJunction="4way_51"/>
<trip id="290" depart="103.559" fromJunction="3way_4" toJunction="3way_3"/>
<trip id="291" depart="103.91609999999999" fromJunction="4way_14" toJunction="3way_4"/>
<trip id="292" depart="104.27319999999999" fromJunction="4way_53" toJunction="4way_28"/>
<trip id="293" depart="104.63029999999999" fromJunction="4way_18" toJunction="4way_43"/>
<trip id="294" depart="104.9874" fromJunction="4way_54" toJunction="3way_48"/>
<trip id="295" depart="105.3445" fromJunction="4way_41" toJunction="3way_24"/>
<trip id="296" depart="105.70159999999998" fromJunction="4way_46" toJunction="3way_16"/>
<trip id="297" depart="106.05869999999999" fromJunction="3way_40" toJunction="3way_47"/>
<trip id="298" depart="106.41579999999999" fromJunction="3way_4" toJunction="4way_43"/>
<trip id="299" depart="106.77289999999999" fromJunction="4way_41" toJunction="4way_11"/>
<trip id="300" depart="107.13" fromJunction="3way_60" toJunction="3way_57"/>
<trip id="301" depart="107.4871" fromJunction="3way_16" toJunction="4way_10"/>
<trip id="302" depart="107.84419999999999" fromJunction="3way_32" toJunction="4way_33"/>
<trip id="303" depart="108.20129999999999" fromJunction="3way_31" toJunction="4way_46"/>
<trip id="304" depart="108.55839999999999" fromJunction="3way_32" toJunction="3way_6"/>
<trip id="305" depart="108.9155" fromJunction="4way_35" toJunction="4way_50"/>
<trip id="306" depart="109.2726" fromJunction="4way_54" toJunction="3way_8"/>
<trip id="307" depart="109.62969999999999" fromJunction="4way_20" toJunction="3way_24"/>
<trip id="308" depart="109.98679999999999" fromJunction="4way_13" toJunction="4way_27"/>
<trip id="309" depart="110.34389999999999" fromJunction="4way_53" toJunction="4way_46"/>
<trip id="310" depart="110.701" fromJunction="4way_51" toJunction="4way_36"/>
<trip id="311" depart="111.0581" fromJunction="3way_31" toJunction="3way_32"/>
<trip id="312" depart="111.4152" fromJunction="3way_60" toJunction="3way_4"/>
<trip id="313" depart="111.77229999999999" fromJunction="4way_18" toJunction="4way_17"/>
<trip id="314" depart="112.12939999999999" fromJunction="4way_38" toJunction="4way_44"/>
<trip id="315" depart="112.48649999999999" fromJunction="3way_15" toJunction="3way_23"/>
<trip id="316" depart="112.8436" fromJunction="4way_28" toJunction="4way_50"/>
<trip id="317" depart="113.2007" fromJunction="4way_30" toJunction="4way_29"/>
<trip id="318" depart="113.55779999999999" fromJunction="3way_8" toJunction="4way_54"/>
<trip id="319" depart="113.91489999999999" fromJunction="3way_31" toJunction="3way_16"/>
<trip id="320" depart="114.27199999999999" fromJunction="4way_35" toJunction="4way_51"/>
<trip id="321" depart="114.6291" fromJunction="3way_6" toJunction="4way_37"/>
<trip id="322" depart="114.9862" fromJunction="4way_42" toJunction="4way_49"/>
<trip id="323" depart="115.34329999999999" fromJunction="3way_47" toJunction="3way_60"/>
<trip id="324" depart="115.70039999999999" fromJunction="3way_4" toJunction="4way_37"/>
<trip id="325" depart="116.05749999999999" fromJunction="3way_15" toJunction="4way_41"/>
<trip id="326" depart="116.4146" fromJunction="4way_46" toJunction="4way_33"/>
<trip id="327" depart="116.7717" fromJunction="4way_37" toJunction="4way_17"/>
<trip id="328" depart="117.12879999999998" fromJunction="3way_58" toJunction="3way_23"/>
<trip id="329" depart="117.48589999999999" fromJunction="3way_8" toJunction="4way_9"/>
<trip id="330" depart="117.84299999999999" fromJunction="3way_32" toJunction="4way_43"/>
<trip id="331" depart="118.20009999999999" fromJunction="4way_27" toJunction="4way_12"/>
<trip id="332" depart="118.5572" fromJunction="4way_17" toJunction="3way_8"/>
<trip id="333" depart="118.9143" fromJunction="3way_5" toJunction="4way_11"/>
<trip id="334" depart="119.27139999999999" fromJunction="4way_35" toJunction="4way_21"/>
<trip id="335" depart="119.62849999999999" fromJunction="4way_26" toJunction="4way_20"/>
<trip id="336" depart="119.98559999999999" fromJunction="4way_9" toJunction="3way_15"/>
<trip id="337" depart="120.3427" fromJunction="3way_40" toJunction="4way_9"/>
<trip id="338" depart="120.6998" fromJunction="4way_28" toJunction="3way_2"/>
<trip id="339" depart="121.05689999999998" fromJunction="4way_11" toJunction="3way_15"/>
<trip id="340" depart="121.41399999999999" fromJunction="4way_27" toJunction="4way_12"/>
<trip id="341" depart="121.77109999999999" fromJunction="3way_15" toJunction="4way_38"/>
<trip id="342" depart="122.12819999999999" fromJunction="3way_2" toJunction="4way_45"/>
<trip id="343" depart="122.4853" fromJunction="4way_9" toJunction="4way_26"/>
<trip id="344" depart="122.8424" fromJunction="3way_24" toJunction="4way_18"/>
<trip id="345" depart="123.19949999999999" fromJunction="3way_2" toJunction="3way_55"/>
<trip id="346" depart="123.55659999999999" fromJunction="4way_29" toJunction="4way_18"/>
<trip id="347" depart="123.91369999999999" fromJunction="3way_61" toJunction="3way_16"/>
<trip id="348" depart="124.2708" fromJunction="3way_6" toJunction="3way_5"/>
<trip id="349" depart="124.6279" fromJunction="3way_15" toJunction="3way_61"/>
<trip id="350" depart="124.98499999999999" fromJunction="3way_4" toJunction="3way_59"/>
<trip id="351" depart="125.34209999999999" fromJunction="4way_37" toJunction="3way_4"/>
<trip id="352" depart="125.69919999999999" fromJunction="4way_34" toJunction="3way_39"/>
<trip id="353" depart="126.0563" fromJunction="4way_33" toJunction="4way_44"/>
<trip id="354" depart="126.4134" fromJunction="3way_55" toJunction="3way_39"/>
<trip id="355" depart="126.77049999999998" fromJunction="4way_18" toJunction="4way_17"/>
<trip id="356" depart="127.12759999999999" fromJunction="4way_44" toJunction="3way_32"/>
<trip id="357" depart="127.48469999999999" fromJunction="4way_22" toJunction="4way_36"/>
<trip id="358" depart="127.84179999999999" fromJunction="4way_53" toJunction="3way_2"/>
<trip id="359" depart="128.19889999999998" fromJunction="4way_45" toJunction="3way_8"/>