<routes xmlns:xsi="http://www.w3.org/2001/XMLSchema-instance" xsi:noNamespaceSchemaLocation="http://sumo.dlr.de/xsd/routes_file.xsd">
<trip id="0" depart="0.0" fromJunction="4way_55" toJunction="4way_53"/>
<trip id="1" depart="0.2666" fromJunction="4way_53" toJunction="4way_24"/>
<trip id="2" depart="0.5332" fromJunction="4way_74" toJunction="4way_12"/>
<trip id="3" depart="0.7998000000000001" fromJunction="4way_67" toJunction="4way_32"/>
<trip id="4" depart="1.0664" fromJunction="4way_51" toJunction="4way_58"/>
<trip id="5" depart="1.333" fromJunction="4way_33" toJunction="4way_56"/>
<trip id="6" depart="1.5996000000000001" fromJunction="4way_18" toJunction="4way_73"/>
<trip id="7" depart="1.8662" fromJunction="3way_19" toJunction="3way_7"/>
<trip id="8" depart="2.1328" fromJunction="4way_86" toJunction="3way_2"/>
<trip id="9" depart="2.3994" fromJunction="4way_47" toJunction="4way_36"/>
<trip id="10" depart="2.666" fromJunction="4way_56" toJunction="4way_68"/>
<trip id="11" depart="2.9326" fromJunction="4way_36" toJunction="4way_52"/>
<trip id="12" depart="3.1992000000000003" fromJunction="4way_64" toJunction="3way_49"/>
<trip id="13" depart="3.4658" fromJunction="4way_38" toJunction="3way_69"/>
<trip id="14" depart="3.7324" fromJunction="4way_81" toJunction="4way_33"/>
<trip id="15" depart="3.999" fromJunction="4way_36" toJunction="3way_70"/>
<trip id="16" depart="4.2656" fromJunction="4way_73" toJunction="4way_42"/>
<trip id="17" depart="4.5322000000000005" fromJunction="4way_44" toJunction="3way_2"/>
<trip id="18" depart="4.7988" fromJunction="4way_44" toJunction="4way_34"/>
<trip id="19" depart="5.0654" fromJunction="4way_25" toJunction="4way_38"/>
<trip id="20" depart="5.332" fromJunction="4way_22" toJunction="4way_31"/>
<trip id="21" depart="5.5986" fromJunction="3way_6" toJunction="4way_35"/>
<trip id="22" depart="5.8652" fromJunction="3way_59" toJunction="3way_94"/>
<trip id="23" depart="6.1318" fromJunction="4way_31" toJunction="3way_20"/>
<trip id="24" depart="6.3984000000000005" fromJunction="4way_32" toJunction="4way_73"/>
<trip id="25" depart="6.665" fromJunction="3way_29" toJunction="4way_78"/>
<trip id="26" depart="6.9316" fromJunction="3way_89" toJunction="3way_94"/>
<trip id="27" depart="7.1982" fromJunction="3way_80" toJunction="4way_74"/>
<trip id="28" depart="7.4648" fromJunction="3way_91" toJunction="4way_52"/>
<trip id="29" depart="7.7314" fromJunction="3way_39" toJunction="3way_89"/>
<trip id="30" depart="7.998" fromJunction="3way_69" toJunction="4way_84"/>
<trip id="31" depart="8.2646" fromJunction="4way_41" toJunction="3way_96"/>
<trip id="32" depart="8.5312" fromJunction="3way_29" toJunction="4way_76"/>
<trip id="33" depart="8.7978" fromJunction="3way_29" toJunction="4way_17"/>
<trip id="34" depart="9.064400000000001" fromJunction="4way_52" toJunction="4way_68"/>
<trip id="35" depart="9.331" fromJunction="4way_34" toJunction="4way_68"/>
<trip id="36" depart="9.5976" fromJunction="3way_4" toJunction="4way_75"/>
<trip id="37" depart="9.8642" fromJunction="3way_49" toJunction="3way_50"/>
<trip id="38" depart="10.1308" fromJunction="3way_49" toJunction="3way_40"/>
<trip id="39" depart="10.3974" fromJunction="4way_81" toJunction="3way_20"/>
<trip id="40" depart="10.664" fromJunction="4way_35" toJunction="3way_7"/>
<trip id="41" depart="10.9306" fromJunction="3way_70" toJunction="4way_73"/>
<trip id="42" depart="11.1972" fromJunction="3way_29" toJunction="4way_33"/>
<trip id="43" depart="11.4638" fromJunction="4way_28" toJunction="4way_83"/>
<trip id="44" depart="11.7304" fromJunction="4way_15" toJunction="3way_20"/>
<trip id="45" depart="11.997" fromJunction="4way_55" toJunction="3way_59"/>
<trip id="46" depart="12.2636" fromJunction="3way_97" toJunction="3way_50"/>
<trip id="47" depart="12.5302" fromJunction="3way_2" toJunction="4way_14"/>
<trip id="48" depart="12.796800000000001" fromJunction="3way_1" toJunction="4way_86"/>
<trip id="49" depart="13.0634" fromJunction="3way_70" toJunction="4way_25"/>
<trip id="50" depart="13.33" fromJunction="4way_58" toJunction="4way_75"/>
<trip id="51" depart="13.5966" fromJunction="4way_83" toJunction="3way_91"/>
<trip id="52" depart="13.8632" fromJunction="4way_73" toJunction="4way_14"/>
<trip id="53" depart="14.1298" fromJunction="4way_48" toJunction="3way_93"/>
<trip id="54" depart="14.3964" fromJunction="4way_27" toJunction="4way_32"/>
<trip id="55" depart="14.663" fromJunction="3way_40" toJunction="4way_45"/>
<trip id="56" depart="14.9296" fromJunction="4way_71" toJunction="4way_76"/>
<trip id="57" depart="15.196200000000001" fromJunction="4way_83" toJunction="4way_57"/>
<trip id="58" depart="15.4628" fromJunction="4way_35" toJunction="4way_57"/>
<trip id="59" depart="15.7294" fromJunction="4way_13" toJunction="4way_65"/>
<trip id="60" depart="15.996" fromJunction="4way_64" toJunction="4way_48"/>
<trip id="61" depart="16.2626" fromJunction="4way_34" toJunction="4way_12"/>
<trip id="62" depart="16.5292" fromJunction="3way_40" toJunction="3way_2"/>
<trip id="63" depart="16.7958" fromJunction="3way_50" toJunction="4way_84"/>
<trip id="64" depart="17.0624" fromJunction="4way_22" toJunction="4way_44"/>
<trip id="65" depart="17.329" fromJunction="3way_40" toJunction="3way_69"/>
<trip id="66" depart="17.5956" fromJunction="4way_14" toJunction="4way_73"/>
<trip id="67" depart="17.8622" fromJunction="4way_74" toJunction="4way_83"/>
<trip id="68" depart="18.128800000000002" fromJunction="4way_22" toJunction="4way_74"/>
<trip id="69" depart="18.3954" fromJunction="4way_41" toJunction="4way_77"/>
<trip id="70" depart="18.662" fromJunction="4way_67" toJunction="4way_22"/>
<trip id="71" depart="18.9286" fromJunction="4way_45" toJunction="4way_66"/>
<trip id="72" depart="19.1952" fromJunction="4way_18" toJunction="3way_29"/>
<trip id="73" depart="19.4618" fromJunction="4way_88" toJunction="4way_55"/>
<trip id="74" depart="19.7284" fromJunction="4way_47" toJunction="3way_79"/>
<trip id="75" depart="19.995" fromJunction="4way_44" toJunction="3way_89"/>
<trip id="76" depart="20.2616" fromJunction="4way_27" toJunction="3way_49"/>
<trip id="77" depart="20.528200000000002" fromJunction="4way_73" toJunction="4way_66"/>
<trip id="78" depart="20.7948" fromJunction="3way_7" toJunction="4way_81"/>
<trip id="79" depart="21.0614" fromJunction="4way_42" toJunction="4way_35"/>
<trip id="80" depart="21.328" fromJunction="4way_47" toJunction="4way_65"/>
<trip id="81" depart="21.5946" fromJunction="4way_37" toJunction="4way_68"/>
<trip id="82" depart="21.8612" fromJunction="4way_31" toJunction="3way_2"/>
<trip id="83" depart="22.1278" fromJunction="3way_98" toJunction="4way_75"/>
<trip id="84" depart="22.3944" fromJunction="3way_6" toJunction="4way_33"/>
<trip id="85" depart="22.661" fromJunction="3way_2" toJunction="3way_95"/>
<trip id="86" depart="22.9276" fromJunction="3way_93" toJunction="4way_56"/>
<trip id="87" depart="23.1942" fromJunction="4way_28" toJunction="4way_21"/>
<trip id="88" depart="23.4608" fromJunction="3way_4" toJunction="4way_45"/>
<trip id="89" depart="23.7274" fromJunction="4way_44" toJunction="3way_89"/>
<trip id="90" depart="23.994" fromJunction="3way_92" toJunction="4way_83"/>
<trip id="91" depart="24.2606" fromJunction="4way_34" toJunction="4way_28"/>
<trip id="92" depart="24.5272" fromJunction="4way_14" toJunction="4way_43"/>
<trip id="93" depart="24.7938" fromJunction="3way_30" toJunction="4way_75"/>
<trip id="94" depart="25.0604" fromJunction="3way_94" toJunction="4way_71"/>
<trip id="95" depart="25.327" fromJunction="4way_38" toJunction="3way_97"/>
<trip id="96" depart="25.593600000000002" fromJunction="4way_82" toJunction="4way_75"/>
<trip id="97" depart="25.8602" fromJunction="3way_80" toJunction="3way_93"/>
<trip id="98" depart="26.1268" fromJunction="4way_22" toJunction="3way_6"/>
<trip id="99" depart="26.3934" fromJunction="4way_35" toJunction="3way_30"/>
<trip id="100" depart="26.66" fromJunction="3way_97" toJunction="4way_51"/>
<trip id="101" depart="26.9266" fromJunction="3way_7" toJunction="3way_3"/>
<trip id="102" depart="27.1932" fromJunction="4way_42" toJunction="4way_25"/>
<trip id="103" depart="27.4598" fromJunction="4way_77" toJunction="4way_43"/>
<trip id="104" depart="27.7264" fromJunction="3way_94" toJunction="4way_88"/>
<trip id="105" depart="27.993000000000002" fromJunction="3way_70" toJunction="4way_84"/>
<trip id="106" depart="28.2596" fromJunction="4way_16" toJunction="3way_2"/>
<trip id="107" depart="28.5262" fromJunction="4way_51" toJunction="3way_20"/>
<trip id="108" depart="28.7928" fromJunction="4way_86" toJunction="4way_14"/>
<trip id="109" depart="29.0594" fromJunction="4way_47" toJunction="4way_54"/>
<trip id="110" depart="29.326" fromJunction="4way_56" toJunction="3way_60"/>
<trip id="111" depart="29.5926" fromJunction="4way_48" toJunction="3way_97"/>
<trip id="112" depart="29.8592" fromJunction="3way_94" toJunction="4way_25"/>
<trip id="113" depart="30.1258" fromJunction="4way_75" toJunction="4way_38"/>
<trip id="114" depart="30.392400000000002" fromJunction="3way_94" toJunction="3way_80"/>
<trip id="115" depart="30.659" fromJunction="3way_3" toJunction="4way_23"/>
<trip id="116" depart="30.9256" fromJunction="4way_12" toJunction="3way_95"/>
<trip id="117" depart="31.1922" fromJunction="4way_52" toJunction="4way_41"/>
<trip id="118" depart="31.4588" fromJunction="4way_14" toJunction="3way_60"/>
<trip id="119" depart="31.7254" fromJunction="3way_49" toJunction="4way_37"/>
<trip id="120" depart="31.992" fromJunction="3way_59" toJunction="4way_23"/>
<trip id="121" depart="32.2586" fromJunction="4way_71" toJunction="4way_55"/>
<trip id="122" depart="32.5252" fromJunction="3way_97" toJunction="4way_73"/>
<trip id="123" depart="32.7918" fromJunction="4way_72" toJunction="3way_69"/>
<trip id="124" depart="33.0584" fromJunction="4way_38" toJunction="4way_31"/>
<trip id="125" depart="33.325" fromJunction="4way_85" toJunction="4way_26"/>
<trip id="126" depart="33.5916" fromJunction="3way_19" toJunction="4way_77"/>
<trip id="127" depart="33.858200000000004" fromJunction="4way_14" toJunction="4way_63"/>
<trip id="128" depart="34.1248" fromJunction="3way_40" toJunction="4way_58"/>
<trip id="129" depart="34.3914" fromJunction="3way_29" toJunction="3way_91"/>
<trip id="130" depart="34.658" fromJunction="4way_28" toJunction="3way_2"/>
<trip id="131" depart="34.9246" fromJunction="4way_46" toJunction="4way_15"/>
<trip id="132" depart="35.1912" fromJunction="4way_14" toJunction="3way_50"/>
<trip id="133" depart="35.4578" fromJunction="4way_72" toJunction="3way_7"/>
<trip id="134" depart="35.7244" fromJunction="4way_57" toJunction="4way_68"/>
<trip id="135" depart="35.991" fromJunction="4way_58" toJunction="4way_11"/>
<trip id="136" depart="36.257600000000004" fromJunction="4way_48" toJunction="3way_92"/>
<trip id="137" depart="36.5242" fromJunction="4way_56" toJunction="4way_38"/>
<trip id="138" depart="36.7908" fromJunction="4way_47" toJunction="4way_54"/>
<trip id="139" depart="37.0574" fromJunction="4way_27" toJunction="3way_40"/>
<trip id="140" depart="37.324" fromJunction="3way_2" toJunction="4way_44"/>
<trip id="141" depart="37.5906" fromJunction="3way_79" toJunction="4way_21"/>
<trip id="142" depart="37.8572" fromJunction="4way_62" toJunction="4way_78"/>
<trip id="143" depart="38.1238" fromJunction="4way_64" toJunction="4way_82"/>
<trip id="144" depart="38.3904" fromJunction="3way_69" toJunction="4way_41"/>
<trip id="145" depart="38.657000000000004" fromJunction="3way_96" toJunction="4way_76"/>
<trip id="146" depart="38.9236" fromJunction="3way_93" toJunction="4way_23"/>
<trip id="147" depart="39.1902" fromJunction="4way_37" toJunction="3way_29"/>
<trip id="148" depart="39.4568" fromJunction="4way_58" toJunction="4way_68"/>
<trip id="149" depart="39.7234" fromJunction="4way_36" toJunction="4way_87"/>
<trip id="150" depart="39.99" fromJunction="3way_8" toJunction="3way_10"/>
<trip id="151" depart="40.2566" fromJunction="3way_92" toJunction="4way_81"/>
<trip id="152" depart="40.5232" fromJunction="3way_6" toJunction="3way_59"/>
<trip id="153" depart="40.7898" fromJunction="3way_2" toJunction="4way_65"/>
<trip id="154" depart="41.056400000000004" fromJunction="3way_79" toJunction="4way_26"/>
<trip id="155" depart="41.323" fromJunction="3way_19" toJunction="3way_8"/>
<trip id="156" depart="41.5896" fromJunction="3way_91" toJunction="4way_15"/>
<trip id="157" depart="41.8562" fromJunction="4way_63" toJunction="4way_12"/>
<trip id="158" depart="42.1228" fromJunction="4way_65" toJunction="4way_37"/>
<trip id="159" depart="42.3894" fromJunction="3way_59" toJunction="3way_70"/>
<trip id="160" depart="42.656" fromJunction="3way_40" toJunction="3way_6"/>
<trip id="161" depart="42.9226" fromJunction="4way_42" toJunction="3way_70"/>
<trip id="162" depart="43.1892" fromJunction="4way_35" toJunction="4way_25"/>
<trip id="163" depart="43.4558" fromJunction="4way_51" toJunction="3way_50"/>
<trip id="164" depart="43.7224" fromJunction="4way_46" toJunction="3way_97"/>
<trip id="165" depart="43.989" fromJunction="4way_35" toJunction="3way_6"/>
<trip id="166" depart="44.2556" fromJunction="4way_41" toJunction="3way_80"/>
<trip id="167" depart="44.5222" fromJunction="3way_60" toJunction="4way_14"/>
<trip id="168" depart="44.7888" fromJunction="3way_96" toJunction="4way_41"/>
<trip id="169" depart="45.0554" fromJunction="3way_5" toJunction="4way_52"/>
<trip id="170" depart="45.322" fromJunction="3way_8" toJunction="4way_56"/>
<trip id="171" depart="45.5886" fromJunction="3way_30" toJunction="4way_23"/>
<trip id="172" depart="45.8552" fromJunction="4way_58" toJunction="4way_83"/>
<trip id="173" depart="46.1218" fromJunction="3way_4" toJunction="4way_64"/>
<trip id="174" depart="46.3884" fromJunction="4way_13" toJunction="4way_22"/>
<trip id="175" depart="46.655" fromJunction="4way_25" toJunction="4way_43"/>
<trip id="176" depart="46.9216" fromJunction="3way_59" toJunction="3way_60"/>
<trip id="177" depart="47.1882" fromJunction="4way_48" toJunction="4way_61"/>
<trip id="178" depart="47.4548" fromJunction="4way_77" toJunction="3way_97"/>
<trip id="179" depart="47.7214" fromJunction="4way_42" toJunction="4way_53"/>
<trip id="180" depart="47.988" fromJunction="4way_52" toJunction="4way_57"/>
<trip id="181" depart="48.2546" fromJunction="4way_71" toJunction="4way_65"/>
<trip id="182" depart="48.5212" fromJunction="4way_35" toJunction="4way_77"/>
<trip id="183" depart="48.7878" fromJunction="3way_10" toJunction="4way_45"/>
<trip id="184" depart="49.0544" fromJunction="4way_64" toJunction="4way_16"/>
<trip id="185" depart="49.321" fromJunction="3way_89" toJunction="3way_91"/>
<trip id="186" depart="49.5876" fromJunction="4way_58" toJunction="4way_56"/>
<trip id="187" depart="49.8542" fromJunction="4way_14" toJunction="4way_42"/>
<trip id="188" depart="50.1208" fromJunction="4way_42" toJunction="4way_37"/>
<trip id="189" depart="50.3874" fromJunction="4way_83" toJunction="4way_48"/>
<trip id="190" depart="50.654" fromJunction="4way_87" toJunction="4way_76"/>
<trip id="191" depart="50.9206" fromJunction="3way_89" toJunction="4way_76"/>
<trip id="192" depart="51.187200000000004" fromJunction="4way_71" toJunction="4way_54"/>
<trip id="193" depart="51.4538" fromJunction="4way_12" toJunction="3way_7"/>
<trip id="194" depart="51.7204" fromJunction="4way_27" toJunction="3way_80"/>
<trip id="195" depart="51.987" fromJunction="4way_58" toJunction="3way_4"/>
<trip id="196" depart="52.2536" fromJunction="3way_97" toJunction="3way_2"/>
<trip id="197" depart="52.5202" fromJunction="4way_28" toJunction="4way_71"/>
<trip id="198" depart="52.7868" fromJunction="4way_38" toJunction="3way_29"/>
<trip id="199" depart="53.0534" fromJunction="4way_42" toJunction="4way_47"/>
<trip id="200" depart="53.32" fromJunction="3way_92" toJunction="3way_10"/>
<trip id="201" depart="53.586600000000004" fromJunction="3way_4" toJunction="4way_34"/>
<trip id="202" depart="53.8532" fromJunction="4way_22" toJunction="3way_2"/>
<trip id="203" depart="54.1198" fromJunction="3way_80" toJunction="3way_7"/>
<trip id="204" depart="54.3864" fromJunction="3way_80" toJunction="3way_93"/>
<trip id="205" depart="54.653" fromJunction="3way_2" toJunction="3way_59"/>
<trip id="206" depart="54.9196" fromJunction="4way_44" toJunction="3way_49"/>
<trip id="207" depart="55.1862" fromJunction="4way_88" toJunction="4way_68"/>
<trip id="208" depart="55.4528" fromJunction="3way_89" toJunction="4way_81"/>
<trip id="209" depart="55.7194" fromJunction="4way_82" toJunction="4way_64"/>
<trip id="210" depart="55.986000000000004" fromJunction="3way_7" toJunction="4way_78"/>
<trip id="211" depart="56.2526" fromJunction="3way_50" toJunction="4way_46"/>
<trip id="212" depart="56.5192" fromJunction="4way_84" toJunction="3way_91"/>
<trip id="213" depart="56.7858" fromJunction="4way_84" toJunction="3way_91"/>
<trip id="214" depart="57.0524" fromJunction="4way_12" toJunction="4way_23"/>
<trip id="215" depart="57.319" fromJunction="3way_50" toJunction="4way_63"/>
<trip id="216" depart="57.5856" fromJunction="4way_81" toJunction="4way_45"/>
<trip id="217" depart="57.8522" fromJunction="4way_86" toJunction="4way_31"/>
<trip id="218" depart="58.1188" fromJunction="3way_5" toJunction="4way_18"/>
<trip id="219" depart="58.385400000000004" fromJunction="4way_21" toJunction="3way_92"/>
<trip id="220" depart="58.652" fromJunction="4way_78" toJunction="4way_76"/>
<trip id="221" depart="58.9186" fromJunction="4way_77" toJunction="4way_68"/>
<trip id="222" depart="59.1852" fromJunction="4way_88" toJunction="3way_40"/>
<trip id="223" depart="59.4518" fromJunction="3way_39" toJunction="3way_91"/>
<trip id="224" depart="59.7184" fromJunction="3way_92" toJunction="4way_48"/>
<trip id="225" depart="59.985" fromJunction="3way_6" toJunction="4way_35"/>
<trip id="226" depart="60.2516" fromJunction="4way_57" toJunction="4way_75"/>
<trip id="227" depart="60.5182" fromJunction="4way_51" toJunction="3way_60"/>
<trip id="228" depart="60.784800000000004" fromJunction="4way_85" toJunction="4way_41"/>
<trip id="229" depart="61.0514" fromJunction="3way_98" toJunction="3way_92"/>
<trip id="230" depart="61.318" fromJunction="3way_30" toJunction="4way_42"/>
<trip id="231" depart="61.5846" fromJunction="3way_92" toJunction="4way_17"/>
<trip id="232" depart="61.8512" fromJunction="4way_38" toJunction="4way_13"/>
<trip id="233" depart="62.1178" fromJunction="4way_47" toJunction="4way_54"/>
<trip id="234" depart="62.3844" fromJunction="4way_16" toJunction="4way_38"/>
<trip id="235" depart="62.651" fromJunction="4way_58" toJunction="4way_45"/>
<trip id="236" depart="62.9176" fromJunction="4way_42" toJunction="4way_88"/>
<trip id="237" depart="63.184200000000004" fromJunction="3way_40" toJunction="3way_7"/>
<trip id="238" depart="63.4508" fromJunction="4way_12" toJunction="3way_79"/>
<trip id="239" depart="63.7174" fromJunction="4way_24" toJunction="3way_59"/>
<trip id="240" depart="63.984" fromJunction="4way_67" toJunction="4way_51"/>
<trip id="241" depart="64.2506" fromJunction="4way_53" toJunction="4way_58"/>
<trip id="242" depart="64.5172" fromJunction="4way_14" toJunction="3way_60"/>
<trip id="243" depart="64.7838" fromJunction="4way_81" toJunction="4way_77"/>
<trip id="244" depart="65.0504" fromJunction="3way_60" toJunction="4way_53"/>
<trip id="245" depart="65.31700000000001" fromJunction="4way_71" toJunction="4way_42"/>
<trip id="246" depart="65.5836" fromJunction="4way_13" toJunction="3way_91"/>
<trip id="247" depart="65.8502" fromJunction="4way_41" toJunction="3way_30"/>
<trip id="248" depart="66.1168" fromJunction="4way_16" toJunction="4way_33"/>
<trip id="249" depart="66.3834" fromJunction="4way_18" toJunction="4way_11"/>
<trip id="250" depart="66.65" fromJunction="3way_5" toJunction="4way_37"/>
<trip id="251" depart="66.9166" fromJunction="4way_32" toJunction="3way_80"/>
<trip id="252" depart="67.1832" fromJunction="4way_21" toJunction="3way_39"/>
<trip id="253" depart="67.4498" fromJunction="4way_25" toJunction="4way_85"/>
<trip id="254" depart="67.71640000000001" fromJunction="4way_55" toJunction="4way_44"/>
<trip id="255" depart="67.983" fromJunction="4way_11" toJunction="3way_95"/>
<trip id="256" depart="68.2496" fromJunction="4way_57" toJunction="4way_15"/>
<trip id="257" depart="68.5162" fromJunction="3way_50" toJunction="4way_53"/>
<trip id="258" depart="68.7828" fromJunction="4way_55" toJunction="3way_3"/>
<trip id="259" depart="69.0494" fromJunction="4way_41" toJunction="3way_1"/>
<trip id="260" depart="69.316" fromJunction="4way_18" toJunction="4way_33"/>
<trip id="261" depart="69.5826" fromJunction="4way_71" toJunction="3way_19"/>
<trip id="262" depart="69.8492" fromJunction="4way_11" toJunction="3way_3"/>
<trip id="263" depart="70.11580000000001" fromJunction="3way_60" toJunction="4way_44"/>
<trip id="264" depart="70.3824" fromJunction="3way_49" toJunction="3way_94"/>
<trip id="265" depart="70.649" fromJunction="4way_35" toJunction="4way_83"/>
<trip id="266" depart="70.9156" fromJunction="4way_48" toJunction="4way_15"/>
<trip id="267" depart="71.1822" fromJunction="4way_74" toJunction="3way_1"/>
<trip id="268" depart="71.4488" fromJunction="4way_14" toJunction="4way_24"/>
<trip id="269" depart="71.7154" fromJunction="3way_2" toJunction="4way_58"/>
<trip id="270" depart="71.982" fromJunction="4way_76" toJunction="4way_35"/>
<trip id="271" depart="72.2486" fromJunction="4way_11" toJunction="4way_13"/>
<trip id="272" depart="72.51520000000001" fromJunction="3way_29" toJunction="4way_46"/>
<trip id="273" depart="72.7818" fromJunction="4way_23" toJunction="4way_32"/>
<trip id="274" depart="73.0484" fromJunction="3way_19" toJunction="4way_35"/>
<trip id="275" depart="73.315" fromJunction="4way_81" toJunction="3way_93"/>
<trip id="276" depart="73.5816" fromJunction="4way_67" toJunction="4way_44"/>
<trip id="277" depart="73.8482" fromJunction="3way_59" toJunction="4way_44"/>
<trip id="278" depart="74.1148" fromJunction="4way_47" toJunction="4way_78"/>
<trip id="279" depart="74.3814" fromJunction="4way_18" toJunction="4way_13"/>
<trip id="280" depart="74.648" fromJunction="4way_18" toJunction="4way_43"/>
<trip id="281" depart="74.91460000000001" fromJunction="4way_58" toJunction="4way_86"/>
<trip id="282" depart="75.1812" fromJunction="3way_4" toJunction="4way_18"/>
<trip id="283" depart="75.4478" fromJunction="4way_61" toJunction="3way_98"/>
<trip id="284" depart="75.7144" fromJunction="3way_40" toJunction="4way_48"/>
<trip id="285" depart="75.981" fromJunction="4way_67" toJunction="3way_89"/>
<trip id="286" depart="76.2476" fromJunction="4way_87" toJunction="4way_32"/>
<trip id="287" depart="76.5142" fromJunction="4way_84" toJunction="3way_89"/>
<trip id="288" depart="76.7808" fromJunction="3way_8" toJunction="4way_32"/>
<trip id="289" depart="77.0474" fromJunction="3way_91" toJunction="4way_35"/>
<trip id="290" depart="77.31400000000001" fromJunction="3way_6" toJunction="3way_4"/>
<trip id="291" depart="77.5806" fromJunction="4way_87" toJunction="3way_6"/>
<trip id="292" depart="77.8472" fromJunction="4way_77" toJunction="4way_85"/>
<trip id="293" depart="78.1138" fromJunction="4way_33" toJunction="4way_15"/>
<trip id="294" depart="78.3804" fromJunction="4way_88" toJunction="3way_30"/>
<trip id="295" depart="78.647" fromJunction="4way_62" toJunction="4way_31"/>
<trip id="296" depart="78.9136" fromJunction="4way_78" toJunction="4way_51"/>
<trip id="297" depart="79.1802" fromJunction="3way_10" toJunction="3way_98"/>
<trip id="298" depart="79.4468" fromJunction="3way_7" toJunction="4way_25"/>
<trip id="299" depart="79.71340000000001" fromJunction="4way_62" toJunction="4way_34"/>
<trip id="300" depart="79.98" fromJunction="3way_92" toJunction="3way_50"/>
<trip id="301" depart="80.2466" fromJunction="4way_41" toJunction="4way_23"/>
<trip id="302" depart="80.5132" fromJunction="4way_11" toJunction="4way_42"/>
<trip id="303" depart="80.7798" fromJunction="3way_59" toJunction="4way_68"/>
<trip id="304" depart="81.0464" fromJunction="4way_11" toJunction="3way_29"/>
<trip id="305" depart="81.313" fromJunction="4way_84" toJunction="4way_14"/>
<trip id="306" depart="81.5796" fromJunction="4way_88" toJunction="4way_71"/>
<trip id="307" depart="81.8462" fromJunction="4way_65" toJunction="4way_21"/>
<trip id="308" depart="82.11280000000001" fromJunction="4way_76" toJunction="4way_64"/>
<trip id="309" depart="82.3794" fromJunction="4way_67" toJunction="4way_68"/>
<trip id="310" depart="82.646" fromJunction="4way_45" toJunction="4way_26"/>
<trip id="311" depart="82.9126" fromJunction="3way_79" toJunction="4way_11"/>
<trip id="312" depart="83.1792" fromJunction="3way_91" toJunction="3way_7"/>
<trip id="313" depart="83.4458" fromJunction="4way_33" toJunction="4way_22"/>
<trip id="314" depart="83.7124" fromJunction="4way_58" toJunction="4way_36"/>
<trip id="315" depart="83.979" fromJunction="3way_39" toJunction="3way_49"/>
<trip id="316" depart="84.2456" fromJunction="4way_85" toJunction="4way_14"/>
<trip id="317" depart="84.5122" fromJunction="4way_28" toJunction="4way_27"/>
<trip id="318" depart="84.7788" fromJunction="4way_71" toJunction="4way_78"/>
<trip id="319" depart="85.0454" fromJunction="3way_79" toJunction="4way_51"/>
<trip id="320" depart="85.312" fromJunction="4way_84" toJunction="4way_25"/>
<trip id="321" depart="85.5786" fromJunction="3way_29" toJunction="4way_37"/>
<trip id="322" depart="85.8452" fromJunction="4way_83" toJunction="4way_82"/>
<trip id="323" depart="86.1118" fromJunction="3way_98" toJunction="3way_91"/>
<trip id="324" depart="86.3784" fromJunction="3way_6" toJunction="4way_37"/>
<trip id="325" depart="86.645" fromJunction="3way_49" toJunction="4way_62"/>
<trip id="326" depart="86.9116" fromJunction="4way_78" toJunction="4way_42"/>
<trip id="327" depart="87.1782" fromJunction="4way_37" toJunction="4way_12"/>
<trip id="328" depart="87.4448" fromJunction="3way_60" toJunction="3way_49"/>
<trip id="329" depart="87.7114" fromJunction="4way_21" toJunction="4way_15"/>
<trip id="330" depart="87.978" fromJunction="4way_64" toJunction="4way_55"/>
<trip id="331" depart="88.2446" fromJunction="4way_22" toJunction="4way_71"/>
<trip id="332" depart="88.5112" fromJunction="3way_7" toJunction="4way_34"/>
<trip id="333" depart="88.7778" fromJunction="4way_74" toJunction="4way_76"/>
<trip id="334" depart="89.0444" fromJunction="4way_43" toJunction="4way_65"/>
<trip id="335" depart="89.311" fromJunction="4way_71" toJunction="3way_39"/>
<trip id="336" depart="89.5776" fromJunction="3way_20" toJunction="4way_71"/>
<trip id="337" depart="89.8442" fromJunction="4way_75" toJunction="3way_3"/>
<trip id="338" depart="90.1108" fromJunction="4way_34" toJunction="3way_39"/>
<trip id="339" depart="90.3774" fromJunction="4way_54" toJunction="4way_45"/>
<trip id="340" depart="90.644" fromJunction="3way_29" toJunction="4way_58"/>
<trip id="341" depart="90.9106" fromJunction="3way_3" toJunction="4way_47"/>
<trip id="342" depart="91.1772" fromJunction="4way_71" toJunction="4way_43"/>
<trip id="343" depart="91.4438" fromJunction="4way_41" toJunction="4way_33"/>
<trip id="344" depart="91.7104" fromJunction="3way_2" toJunction="3way_96"/>
<trip id="345" depart="91.977" fromJunction="4way_17" toJunction="4way_23"/>
<trip id="346" depart="92.2436" fromJunction="3way_93" toJunction="4way_41"/>
<trip id="347" depart="92.5102" fromJunction="3way_19" toJunction="3way_8"/>
<trip id="348" depart="92.7768" fromJunction="3way_29" toJunction="3way_93"/>
<trip id="349" depart="93.0434" fromJunction="3way_7" toJunction="3way_70"/>
<trip id="350" depart="93.31" fromJunction="4way_37" toJunction="3way_7"/>
<trip id="351" depart="93.5766" fromJunction="4way_63" toJunction="3way_89"/>
<trip id="352" depart="93.8432" fromJunction="4way_42" toJunction="4way_36"/>
<trip id="353" depart="94.1098" fromJunction="3way_95" toJunction="3way_79"/>
<trip id="354" depart="94.3764" fromJunction="4way_33" toJunction="4way_22"/>
<trip id="355" depart="94.643" fromJunction="4way_46" toJunction="4way_21"/>
<trip id="356" depart="94.9096" fromJunction="4way_28" toJunction="4way_16"/>
<trip id="357" depart="95.1762" fromJunction="4way_67" toJunction="3way_3"/>
<trip id="358" depart="95.4428" fromJunction="4way_57" toJunction="4way_61"/>
<trip id="359" depart="95.7094" fromJunction="4way_78" toJunction="4way_35"/>
<trip id="360" depart="95.976" fromJunction="4way_31" toJunction="4way_16"/>
<trip id="361" depart="96.2426" fromJunction="4way_51" toJunction="4way_13"/>
<trip id="362" depart="96.5092" fromJunction="3way_70" toJunction="4way_41"/>
<trip id="363" depart="96.7758" fromJunction="4way_25" toJunction="4way_82"/>
<trip id="364" depart="97.0424" fromJunction="4way_33" toJunction="3way_60"/>
<trip id="365" depart="97.309" fromJunction="3way_89" toJunction="3way_49"/>
<trip id="366" depart="97.5756" fromJunction="4way_68" toJunction="3way_5"/>
<trip id="367" depart="97.8422" fromJunction="3way_97" toJunction="3way_1"/>
<trip id="368" depart="98.1088" fromJunction="3way_8" toJunction="4way_34"/>
<trip id="369" depart="98.3754" fromJunction="4way_65" toJunction="4way_57"/>
<trip id="370" depart="98.642" fromJunction="4way_13" toJunction="4way_58"/>
<trip id="371" depart="98.9086" fromJunction="4way_53" toJunction="3way_40"/>
<trip id="372" depart="99.1752" fromJunction="4way_23" toJunction="4way_28"/>
<trip id="373" depart="99.4418" fromJunction="4way_57" toJunction="3way_70"/>
<trip id="374" depart="99.7084" fromJunction="3way_1" toJunction="4way_41"/>
<trip id="375" depart="99.975" fromJunction="3way_20" toJunction="3way_91"/>
<trip id="376" depart="100.2416" fromJunction="4way_52" toJunction="4way_37"/>
<trip id="377" depart="100.5082" fromJunction="4way_11" toJunction="4way_32"/>
<trip id="378" depart="100.7748" fromJunction="4way_38" toJunction="4way_57"/>
<trip id="379" depart="101.0414" fromJunction="4way_51" toJunction="4way_88"/>
<trip id="380" depart="101.308" fromJunction="4way_56" toJunction="4way_58"/>
<trip id="381" depart="101.5746" fromJunction="3way_91" toJunction="4way_15"/>