<?xml version="1.0" encoding="UTF-8"?>
<nodes xmlns:xsi="http://www.w3.org/2001/XMLSchema-instance" xsi:noNamespaceSchemaLocation="http://sumo.dlr.de/xsd/nodes_file.xsd">
    <node id="3way_1" x="100.00" y="0.00" type="traffic_light" tlLayout="opposites"/>
    <node id="3way_10" x="1000.00" y="0.00" type="traffic_light" tlLayout="opposites"/>
    <node id="3way_104" x="1400.00" y="-600.00" type="traffic_light" tlLayout="opposites"/>
    <node id="3way_105" x="0.00" y="-700.00" type="traffic_light" tlLayout="opposites"/>
    <node id="3way_11" x="1100.00" y="0.00" type="traffic_light" tlLayout="opposites"/>
    <node id="3way_119" x="1400.00" y="-700.00" type="traffic_light" tlLayout="opposites"/>
    <node id="3way_12" x="1200.00" y="0.00" type="traffic_light" tlLayout="opposites"/>
    <node id="3way_120" x="0.00" y="-800.00" type="traffic_light" tlLayout="opposites"/>
    <node id="3way_13" x="1300.00" y="0.00" type="traffic_light" tlLayout="opposites"/>
    <node id="3way_134" x="1400.00" y="-800.00" type="traffic_light" tlLayout="opposites"/>
    <node id="3way_135" x="0.00" y="-900.00" type="traffic_light" tlLayout="opposites"/>
    <node id="3way_149" x="1400.00" y="-900.00" type="traffic_light" tlLayout="opposites"/>
    <node id="3way_15" x="0.00" y="-100.00" type="traffic_light" tlLayout="opposites"/>
    <node id="3way_150" x="0.00" y="-1000.00" type="traffic_light" tlLayout="opposites"/>
    <node id="3way_164" x="1400.00" y="-1000.00" type="traffic_light" tlLayout="opposites"/>
    <node id="3way_165" x="0.00" y="-1100.00" type="traffic_light" tlLayout="opposites"/>
    <node id="3way_179" x="1400.00" y="-1100.00" type="traffic_light" tlLayout="opposites"/>
    <node id="3way_180" x="0.00" y="-1200.00" type="traffic_light" tlLayout="opposites"/>
    <node id="3way_194" x="1400.00" y="-1200.00" type="traffic_light" tlLayout="opposites"/>
    <node id="3way_195" x="0.00" y="-1300.00" type="traffic_light" tlLayout="opposites"/>
    <node id="3way_2" x="200.00" y="0.00" type="traffic_light" tlLayout="opposites"/>
    <node id="3way_209" x="1400.00" y="-1300.00" type="traffic_light" tlLayout="opposites"/>
    <node id="3way_211" x="100.00" y="-1400.00" type="traffic_light" tlLayout="opposites"/>
    <node id="3way_212" x="200.00" y="-1400.00" type="traffic_light" tlLayout="opposites"/>
    <node id="3way_213" x="300.00" y="-1400.00" type="traffic_light" tlLayout="opposites"/>
    <node id="3way_214" x="400.00" y="-1400.00" type="traffic_light" tlLayout="opposites"/>
    <node id="3way_215" x="500.00" y="-1400.00" type="traffic_light" tlLayout="opposites"/>
    <node id="3way_216" x="600.00" y="-1400.00" type="traffic_light" tlLayout="opposites"/>
    <node id="3way_217" x="700.00" y="-1400.00" type="traffic_light" tlLayout="opposites"/>
    <node id="3way_218" x="800.00" y="-1400.00" type="traffic_light" tlLayout="opposites"/>
    <node id="3way_219" x="900.00" y="-1400.00" type="traffic_light" tlLayout="opposites"/>
    <node id="3way_220" x="1000.00" y="-1400.00" type="traffic_light" tlLayout="opposites"/>
    <node id="3way_221" x="1100.00" y="-1400.00" type="traffic_light" tlLayout="opposites"/>
    <node id="3way_222" x="1200.00" y="-1400.00" type="traffic_light" tlLayout="opposites"/>
    <node id="3way_223" x="1300.00" y="-1400.00" type="traffic_light" tlLayout="opposites"/>
    <node id="3way_29" x="1400.00" y="-100.00" type="traffic_light" tlLayout="opposites"/>
    <node id="3way_3" x="300.00" y="0.00" type="traffic_light" tlLayout="opposites"/>
    <node id="3way_30" x="0.00" y="-200.00" type="traffic_light" tlLayout="opposites"/>
    <node id="3way_4" x="400.00" y="0.00" type="traffic_light" tlLayout="opposites"/>
    <node id="3way_44" x="1400.00" y="-200.00" type="traffic_light" tlLayout="opposites"/>
    <node id="3way_45" x="0.00" y="-300.00" type="traffic_light" tlLayout="opposites"/>
    <node id="3way_5" x="500.00" y="0.00" type="traffic_light" tlLayout="opposites"/>
    <node id="3way_59" x="1400.00" y="-300.00" type="traffic_light" tlLayout="opposites"/>
    <node id="3way_6" x="600.00" y="0.00" type="traffic_light" tlLayout="opposites"/>
    <node id="3way_60" x="0.00" y="-400.00" type="traffic_light" tlLayout="opposites"/>
    <node id="3way_7" x="700.00" y="0.00" type="traffic_light" tlLayout="opposites"/>
    <node id="3way_74" x="1400.00" y="-400.00" type="traffic_light" tlLayout="opposites"/>
    <node id="3way_75" x="0.00" y="-500.00" type="traffic_light" tlLayout="opposites"/>
    <node id="3way_8" x="800.00" y="0.00" type="traffic_light" tlLayout="opposites"/>
    <node id="3way_89" x="1400.00" y="-500.00" type="traffic_light" tlLayout="opposites"/>
    <node id="3way_9" x="900.00" y="0.00" type="traffic_light" tlLayout="opposites"/>
    <node id="3way_90" x="0.00" y="-600.00" type="traffic_light" tlLayout="opposites"/>
    <node id="4way_100" x="1000.00" y="-600.00" type="traffic_light" tlLayout="opposites"/>
    <node id="4way_101" x="1100.00" y="-600.00" type="traffic_light" tlLayout="opposites"/>
    <node id="4way_102" x="1200.00" y="-600.00" type="traffic_light" tlLayout="opposites"/>
    <node id="4way_103" x="1300.00" y="-600.00" type="traffic_light" tlLayout="opposites"/>
    <node id="4way_106" x="100.00" y="-700.00" type="traffic_light" tlLayout="opposites"/>
    <node id="4way_107" x="200.00" y="-700.00" type="traffic_light" tlLayout="opposites"/>
    <node id="4way_108" x="300.00" y="-700.00" type="traffic_light" tlLayout="opposites"/>
    <node id="4way_109" x="400.00" y="-700.00" type="traffic_light" tlLayout="opposites"/>
    <node id="4way_110" x="500.00" y="-700.00" type="traffic_light" tlLayout="opposites"/>
    <node id="4way_111" x="600.00" y="-700.00" type="traffic_light" tlLayout="opposites"/>
    <node id="4way_112" x="700.00" y="-700.00" type="traffic_light" tlLayout="opposites"/>
    <node id="4way_113" x="800.00" y="-700.00" type="traffic_light" tlLayout="opposites"/>
    <node id="4way_114" x="900.00" y="-700.00" type="traffic_light" tlLayout="opposites"/>
    <node id="4way_115" x="1000.00" y="-700.00" type="traffic_light" tlLayout="opposites"/>
    <node id="4way_116" x="1100.00" y="-700.00" type="traffic_light" tlLayout="opposites"/>
    <node id="4way_117" x="1200.00" y="-700.00" type="traffic_light" tlLayout="opposites"/>
    <node id="4way_118" x="1300.00" y="-700.00" type="traffic_light" tlLayout="opposites"/>
    <node id="4way_121" x="100.00" y="-800.00" type="traffic_light" tlLayout="opposites"/>
    <node id="4way_122" x="200.00" y="-800.00" type="traffic_light" tlLayout="opposites"/>
    <node id="4way_123" x="300.00" y="-800.00" type="traffic_light" tlLayout="opposites"/>
    <node id="4way_124" x="400.00" y="-800.00" type="traffic_light" tlLayout="opposites"/>
    <node id="4way_125" x="500.00" y="-800.00" type="traffic_light" tlLayout="opposites"/>
    <node id="4way_126" x="600.00" y="-800.00" type="traffic_light" tlLayout="opposites"/>
    <node id="4way_127" x="700.00" y="-800.00" type="traffic_light" tlLayout="opposites"/>
    <node id="4way_128" x="800.00" y="-800.00" type="traffic_light" tlLayout="opposites"/>
    <node id="4way_129" x="900.00" y="-800.00" type="traffic_light" tlLayout="opposites"/>
    <node id="4way_130" x="1000.00" y="-800.00" type="traffic_light" tlLayout="opposites"/>
    <node id="4way_131" x="1100.00" y="-800.00" type="traffic_light" tlLayout="opposites"/>
    <node id="4way_132" x="1200.00" y="-800.00" type="traffic_light" tlLayout="opposites"/>
    <node id="4way_133" x="1300.00" y="-800.00" type="traffic_light" tlLayout="opposites"/>
    <node id="4way_136" x="100.00" y="-900.00" type="traffic_light" tlLayout="opposites"/>
    <node id="4way_137" x="200.00" y="-900.00" type="traffic_light" tlLayout="opposites"/>
    <node id="4way_138" x="300.00" y="-900.00" type="traffic_light" tlLayout="opposites"/>
    <node id="4way_139" x="400.00" y="-900.00" type="traffic_light" tlLayout="opposites"/>
    <node id="4way_140" x="500.00" y="-900.00" type="traffic_light" tlLayout="opposites"/>
    <node id="4way_141" x="600.00" y="-900.00" type="traffic_light" tlLayout="opposites"/>
    <node id="4way_142" x="700.00" y="-900.00" type="traffic_light" tlLayout="opposites"/>
    <node id="4way_143" x="800.00" y="-900.00" type="traffic_light" tlLayout="opposites"/>
    <node id="4way_144" x="900.00" y="-900.00" type="traffic_light" tlLayout="opposites"/>
    <node id="4way_145" x="1000.00" y="-900.00" type="traffic_light" tlLayout="opposites"/>
    <node id="4way_146" x="1100.00" y="-900.00" type="traffic_light" tlLayout="opposites"/>
    <node id="4way_147" x="1200.00" y="-900.00" type="traffic_light" tlLayout="opposites"/>
    <node id="4way_148" x="1300.00" y="-900.00" type="traffic_light" tlLayout="opposites"/>
    <node id="4way_151" x="100.00" y="-1000.00" type="traffic_light" tlLayout="opposites"/>
    <node id="4way_152" x="200.00" y="-1000.00" type="traffic_light" tlLayout="opposites"/>
    <node id="4way_153" x="300.00" y="-1000.00" type="traffic_light" tlLayout="opposites"/>
    <node id="4way_154" x="400.00" y="-1000.00" type="traffic_light" tlLayout="opposites"/>
    <node id="4way_155" x="500.00" y="-1000.00" type="traffic_light" tlLayout="opposites"/>
    <node id="4way_156" x="600.00" y="-1000.00" type="traffic_light" tlLayout="opposites"/>
    <node id="4way_157" x="700.00" y="-1000.00" type="traffic_light" tlLayout="opposites"/>
    <node id="4way_158" x="800.00" y="-1000.00" type="traffic_light" tlLayout="opposites"/>
    <node id="4way_159" x="900.00" y="-1000.00" type="traffic_light" tlLayout="opposites"/>
    <node id="4way_16" x="100.00" y="-100.00" type="traffic_light" tlLayout="opposites"/>
    <node id="4way_160" x="1000.00" y="-1000.00" type="traffic_light" tlLayout="opposites"/>
    <node id="4way_161" x="1100.00" y="-1000.00" type="traffic_light" tlLayout="opposites"/>
    <node id="4way_162" x="1200.00" y="-1000.00" type="traffic_light" tlLayout="opposites"/>
    <node id="4way_163" x="1300.00" y="-1000.00" type="traffic_light" tlLayout="opposites"/>
    <node id="4way_166" x="100.00" y="-1100.00" type="traffic_light" tlLayout="opposites"/>
    <node id="4way_167" x="200.00" y="-1100.00" type="traffic_light" tlLayout="opposites"/>
    <node id="4way_168" x="300.00" y="-1100.00" type="traffic_light" tlLayout="opposites"/>
    <node id="4way_169" x="400.00" y="-1100.00" type="traffic_light" tlLayout="opposites"/>
    <node id="4way_17" x="200.00" y="-100.00" type="traffic_light" tlLayout="opposites"/>
    <node id="4way_170" x="500.00" y="-1100.00" type="traffic_light" tlLayout="opposites"/>
    <node id="4way_171" x="600.00" y="-1100.00" type="traffic_light" tlLayout="opposites"/>
    <node id="4way_172" x="700.00" y="-1100.00" type="traffic_light" tlLayout="opposites"/>
    <node id="4way_173" x="800.00" y="-1100.00" type="traffic_light" tlLayout="opposites"/>
    <node id="4way_174" x="900.00" y="-1100.00" type="traffic_light" tlLayout="opposites"/>
    <node id="4way_175" x="1000.00" y="-1100.00" type="traffic_light" tlLayout="opposites"/>
    <node id="4way_176" x="1100.00" y="-1100.00" type="traffic_light" tlLayout="opposites"/>
    <node id="4way_177" x="1200.00" y="-1100.00" type="traffic_light" tlLayout="opposites"/>
    <node id="4way_178" x="1300.00" y="-1100.00" type="traffic_light" tlLayout="opposites"/>
    <node id="4way_18" x="300.00" y="-100.00" type="traffic_light" tlLayout="opposites"/>
    <node id="4way_181" x="100.00" y="-1200.00" type="traffic_light" tlLayout="opposites"/>
    <node id="4way_182" x="200.00" y="-1200.00" type="traffic_light" tlLayout="opposites"/>
    <node id="4way_183" x="300.00" y="-1200.00" type="traffic_light" tlLayout="opposites"/>
    <node id="4way_184" x="400.00" y="-1200.00" type="traffic_light" tlLayout="opposites"/>
    <node id="4way_185" x="500.00" y="-1200.00" type="traffic_light" tlLayout="opposites"/>
    <node id="4way_186" x="600.00" y="-1200.00" type="traffic_light" tlLayout="opposites"/>
    <node id="4way_187" x="700.00" y="-1200.00" type="traffic_light" tlLayout="opposites"/>
    <node id="4way_188" x="800.00" y="-1200.00" type="traffic_light" tlLayout="opposites"/>
    <node id="4way_189" x="900.00" y="-1200.00" type="traffic_light" tlLayout="opposites"/>
    <node id="4way_19" x="400.00" y="-100.00" type="traffic_light" tlLayout="opposites"/>
    <node id="4way_190" x="1000.00" y="-1200.00" type="traffic_light" tlLayout="opposites"/>
    <node id="4way_191" x="1100.00" y="-1200.00" type="traffic_light" tlLayout="opposites"/>
    <node id="4way_192" x="1200.00" y="-1200.00" type="traffic_light" tlLayout="opposites"/>
    <node id="4way_193" x="1300.00" y="-1200.00" type="traffic_light" tlLayout="opposites"/>
    <node id="4way_196" x="100.00" y="-1300.00" type="traffic_light" tlLayout="opposites"/>
    <node id="4way_197" x="200.00" y="-1300.00" type="traffic_light" tlLayout="opposites"/>
    <node id="4way_198" x="300.00" y="-1300.00" type="traffic_light" tlLayout="opposites"/>
    <node id="4way_199" x="400.00" y="-1300.00" type="traffic_light" tlLayout="opposites"/>
    <node id="4way_20" x="500.00" y="-100.00" type="traffic_light" tlLayout="opposites"/>
    <node id="4way_200" x="500.00" y="-1300.00" type="traffic_light" tlLayout="opposites"/>
    <node id="4way_201" x="600.00" y="-1300.00" type="traffic_light" tlLayout="opposites"/>
    <node id="4way_202" x="700.00" y="-1300.00" type="traffic_light" tlLayout="opposites"/>
    <node id="4way_203" x="800.00" y="-1300.00" type="traffic_light" tlLayout="opposites"/>
    <node id="4way_204" x="900.00" y="-1300.00" type="traffic_light" tlLayout="opposites"/>
    <node id="4way_205" x="1000.00" y="-1300.00" type="traffic_light" tlLayout="opposites"/>
    <node id="4way_206" x="1100.00" y="-1300.00" type="traffic_light" tlLayout="opposites"/>
    <node id="4way_207" x="1200.00" y="-1300.00" type="traffic_light" tlLayout="opposites"/>
    <node id="4way_208" x="1300.00" y="-1300.00" type="traffic_light" tlLayout="opposites"/>
    <node id="4way_21" x="600.00" y="-100.00" type="traffic_light" tlLayout="opposites"/>
    <node id="4way_22" x="700.00" y="-100.00" type="traffic_light" tlLayout="opposites"/>
    <node id="4way_23" x="800.00" y="-100.00" type="traffic_light" tlLayout="opposites"/>
    <node id="4way_24" x="900.00" y="-100.00" type="traffic_light" tlLayout="opposites"/>
    <node id="4way_25" x="1000.00" y="-100.00" type="traffic_light" tlLayout="opposites"/>
    <node id="4way_26" x="1100.00" y="-100.00" type="traffic_light" tlLayout="opposites"/>
    <node id="4way_27" x="1200.00" y="-100.00" type="traffic_light" tlLayout="opposites"/>
    <node id="4way_28" x="1300.00" y="-100.00" type="traffic_light" tlLayout="opposites"/>
    <node id="4way_31" x="100.00" y="-200.00" type="traffic_light" tlLayout="opposites"/>
    <node id="4way_32" x="200.00" y="-200.00" type="traffic_light" tlLayout="opposites"/>
    <node id="4way_33" x="300.00" y="-200.00" type="traffic_light" tlLayout="opposites"/>
    <node id="4way_34" x="400.00" y="-200.00" type="traffic_light" tlLayout="opposites"/>
    <node id="4way_35" x="500.00" y="-200.00" type="traffic_light" tlLayout="opposites"/>
    <node id="4way_36" x="600.00" y="-200.00" type="traffic_light" tlLayout="opposites"/>
    <node id="4way_37" x="700.00" y="-200.00" type="traffic_light" tlLayout="opposites"/>
    <node id="4way_38" x="800.00" y="-200.00" type="traffic_light" tlLayout="opposites"/>
    <node id="4way_39" x="900.00" y="-200.00" type="traffic_light" tlLayout="opposites"/>
    <node id="4way_40" x="1000.00" y="-200.00" type="traffic_light" tlLayout="opposites"/>
    <node id="4way_41" x="1100.00" y="-200.00" type="traffic_light" tlLayout="opposites"/>
    <node id="4way_42" x="1200.00" y="-200.00" type="traffic_light" tlLayout="opposites"/>
    <node id="4way_43" x="1300.00" y="-200.00" type="traffic_light" tlLayout="opposites"/>
    <node id="4way_46" x="100.00" y="-300.00" type="traffic_light" tlLayout="opposites"/>
    <node id="4way_47" x="200.00" y="-300.00" type="traffic_light" tlLayout="opposites"/>
    <node id="4way_48" x="300.00" y="-300.00" type="traffic_light" tlLayout="opposites"/>
    <node id="4way_49" x="400.00" y="-300.00" type="traffic_light" tlLayout="opposites"/>
    <node id="4way_50" x="500.00" y="-300.00" type="traffic_light" tlLayout="opposites"/>
    <node id="4way_51" x="600.00" y="-300.00" type="traffic_light" tlLayout="opposites"/>
    <node id="4way_52" x="700.00" y="-300.00" type="traffic_light" tlLayout="opposites"/>
    <node id="4way_53" x="800.00" y="-300.00" type="traffic_light" tlLayout="opposites"/>
    <node id="4way_54" x="900.00" y="-300.00" type="traffic_light" tlLayout="opposites"/>
    <node id="4way_55" x="1000.00" y="-300.00" type="traffic_light" tlLayout="opposites"/>
    <node id="4way_56" x="1100.00" y="-300.00" type="traffic_light" tlLayout="opposites"/>
    <node id="4way_57" x="1200.00" y="-300.00" type="traffic_light" tlLayout="opposites"/>
    <node id="4way_58" x="1300.00" y="-300.00" type="traffic_light" tlLayout="opposites"/>
    <node id="4way_61" x="100.00" y="-400.00" type="traffic_light" tlLayout="opposites"/>
    <node id="4way_62" x="200.00" y="-400.00" type="traffic_light" tlLayout="opposites"/>
    <node id="4way_63" x="300.00" y="-400.00" type="traffic_light" tlLayout="opposites"/>
    <node id="4way_64" x="400.00" y="-400.00" type="traffic_light" tlLayout="opposites"/>
    <node id="4way_65" x="500.00" y="-400.00" type="traffic_light" tlLayout="opposites"/>
    <node id="4way_66" x="600.00" y="-400.00" type="traffic_light" tlLayout="opposites"/>
    <node id="4way_67" x="700.00" y="-400.00" type="traffic_light" tlLayout="opposites"/>
    <node id="4way_68" x="800.00" y="-400.00" type="traffic_light" tlLayout="opposites"/>
    <node id="4way_69" x="900.00" y="-400.00" type="traffic_light" tlLayout="opposites"/>
    <node id="4way_70" x="1000.00" y="-400.00" type="traffic_light" tlLayout="opposites"/>
    <node id="4way_71" x="1100.00" y="-400.00" type="traffic_light" tlLayout="opposites"/>
    <node id="4way_72" x="1200.00" y="-400.00" type="traffic_light" tlLayout="opposites"/>
    <node id="4way_73" x="1300.00" y="-400.00" type="traffic_light" tlLayout="opposites"/>
    <node id="4way_76" x="100.00" y="-500.00" type="traffic_light" tlLayout="opposites"/>
    <node id="4way_77" x="200.00" y="-500.00" type="traffic_light" tlLayout="opposites"/>
    <node id="4way_78" x="300.00" y="-500.00" type="traffic_light" tlLayout="opposites"/>
    <node id="4way_79" x="400.00" y="-500.00" type="traffic_light" tlLayout="opposites"/>
    <node id="4way_80" x="500.00" y="-500.00" type="traffic_light" tlLayout="opposites"/>
    <node id="4way_81" x="600.00" y="-500.00" type="traffic_light" tlLayout="opposites"/>
    <node id="4way_82" x="700.00" y="-500.00" type="traffic_light" tlLayout="opposites"/>
    <node id="4way_83" x="800.00" y="-500.00" type="traffic_light" tlLayout="opposites"/>
    <node id="4way_84" x="900.00" y="-500.00" type="traffic_light" tlLayout="opposites"/>
    <node id="4way_85" x="1000.00" y="-500.00" type="traffic_light" tlLayout="opposites"/>
    <node id="4way_86" x="1100.00" y="-500.00" type="traffic_light" tlLayout="opposites"/>
    <node id="4way_87" x="1200.00" y="-500.00" type="traffic_light" tlLayout="opposites"/>
    <node id="4way_88" x="1300.00" y="-500.00" type="traffic_light" tlLayout="opposites"/>
    <node id="4way_91" x="100.00" y="-600.00" type="traffic_light" tlLayout="opposites"/>
    <node id="4way_92" x="200.00" y="-600.00" type="traffic_light" tlLayout="opposites"/>
    <node id="4way_93" x="300.00" y="-600.00" type="traffic_light" tlLayout="opposites"/>
    <node id="4way_94" x="400.00" y="-600.00" type="traffic_light" tlLayout="opposites"/>
    <node id="4way_95" x="500.00" y="-600.00" type="traffic_light" tlLayout="opposites"/>
    <node id="4way_96" x="600.00" y="-600.00" type="traffic_light" tlLayout="opposites"/>
    <node id="4way_97" x="700.00" y="-600.00" type="traffic_light" tlLayout="opposites"/>
    <node id="4way_98" x="800.00" y="-600.00" type="traffic_light" tlLayout="opposites"/>
    <node id="4way_99" x="900.00" y="-600.00" type="traffic_light" tlLayout="opposites"/>
</nodes>
