<routes xmlns:xsi="http://www.w3.org/2001/XMLSchema-instance" xsi:noNamespaceSchemaLocation="http://sumo.dlr.de/xsd/routes_file.xsd">
<trip id="0" depart="0.0" fromJunction="4way_67" toJunction="4way_12"/>
<trip id="1" depart="0.3418" fromJunction="4way_65" toJunction="4way_48"/>
<trip id="2" depart="0.6836" fromJunction="4way_13" toJunction="4way_46"/>
<trip id="3" depart="1.0253999999999999" fromJunction="4way_60" toJunction="4way_55"/>
<trip id="4" depart="1.3672" fromJunction="4way_19" toJunction="4way_52"/>
<trip id="5" depart="1.709" fromJunction="4way_56" toJunction="4way_50"/>
<trip id="6" depart="2.0507999999999997" fromJunction="4way_25" toJunction="4way_21"/>
<trip id="7" depart="2.3926" fromJunction="3way_7" toJunction="3way_6"/>
<trip id="8" depart="2.7344" fromJunction="4way_24" toJunction="3way_2"/>
<trip id="9" depart="3.0762" fromJunction="4way_42" toJunction="4way_41"/>
<trip id="10" depart="3.418" fromJunction="4way_59" toJunction="4way_61"/>
<trip id="11" depart="3.7598" fromJunction="4way_50" toJunction="4way_11"/>
<trip id="12" depart="4.1015999999999995" fromJunction="4way_13" toJunction="3way_35"/>
<trip id="13" depart="4.4434" fromJunction="4way_34" toJunction="3way_53"/>
<trip id="14" depart="4.7852" fromJunction="4way_37" toJunction="4way_56"/>
<trip id="15" depart="5.127" fromJunction="4way_41" toJunction="3way_73"/>
<trip id="16" depart="5.4688" fromJunction="4way_21" toJunction="4way_11"/>
<trip id="17" depart="5.8106" fromJunction="4way_57" toJunction="3way_2"/>
<trip id="18" depart="6.1524" fromJunction="4way_40" toJunction="4way_34"/>
<trip id="19" depart="6.4942" fromJunction="4way_55" toJunction="3way_9"/>
<trip id="20" depart="6.836" fromJunction="3way_5" toJunction="4way_49"/>
<trip id="21" depart="7.1777999999999995" fromJunction="3way_35" toJunction="3way_77"/>
<trip id="22" depart="7.5196" fromJunction="4way_10" toJunction="3way_36"/>
<trip id="23" depart="7.8614" fromJunction="4way_55" toJunction="4way_21"/>
<trip id="24" depart="8.203199999999999" fromJunction="3way_17" toJunction="4way_70"/>
<trip id="25" depart="8.545" fromJunction="3way_62" toJunction="3way_77"/>
<trip id="26" depart="8.8868" fromJunction="3way_74" toJunction="4way_22"/>
<trip id="27" depart="9.2286" fromJunction="3way_75" toJunction="4way_11"/>
<trip id="28" depart="9.5704" fromJunction="3way_26" toJunction="3way_62"/>
<trip id="29" depart="9.9122" fromJunction="3way_44" toJunction="4way_22"/>
<trip id="30" depart="10.254" fromJunction="4way_10" toJunction="3way_78"/>
<trip id="31" depart="10.5958" fromJunction="3way_17" toJunction="4way_15"/>
<trip id="32" depart="10.9376" fromJunction="3way_17" toJunction="4way_24"/>
<trip id="33" depart="11.279399999999999" fromJunction="4way_20" toJunction="4way_61"/>
<trip id="34" depart="11.6212" fromJunction="4way_48" toJunction="4way_61"/>
<trip id="35" depart="11.963" fromJunction="3way_4" toJunction="4way_14"/>
<trip id="36" depart="12.3048" fromJunction="3way_35" toJunction="3way_63"/>
<trip id="37" depart="12.6466" fromJunction="3way_35" toJunction="3way_54"/>
<trip id="38" depart="12.9884" fromJunction="4way_37" toJunction="3way_36"/>
<trip id="39" depart="13.3302" fromJunction="4way_49" toJunction="3way_5"/>
<trip id="40" depart="13.672" fromJunction="3way_73" toJunction="4way_21"/>
<trip id="41" depart="14.0138" fromJunction="3way_17" toJunction="4way_56"/>
<trip id="42" depart="14.355599999999999" fromJunction="4way_25" toJunction="4way_30"/>
<trip id="43" depart="14.6974" fromJunction="4way_31" toJunction="3way_36"/>
<trip id="44" depart="15.0392" fromJunction="4way_67" toJunction="3way_44"/>
<trip id="45" depart="15.381" fromJunction="3way_79" toJunction="3way_54"/>
<trip id="46" depart="15.7228" fromJunction="3way_2" toJunction="4way_39"/>
<trip id="47" depart="16.0646" fromJunction="3way_1" toJunction="4way_15"/>
<trip id="48" depart="16.406399999999998" fromJunction="3way_73" toJunction="4way_40"/>
<trip id="49" depart="16.7482" fromJunction="4way_52" toJunction="4way_14"/>
<trip id="50" depart="17.09" fromJunction="4way_30" toJunction="3way_74"/>
<trip id="51" depart="17.4318" fromJunction="4way_30" toJunction="4way_39"/>
<trip id="52" depart="17.7736" fromJunction="4way_43" toJunction="3way_76"/>
<trip id="53" depart="18.1154" fromJunction="4way_33" toJunction="4way_64"/>
<trip id="54" depart="18.4572" fromJunction="3way_54" toJunction="4way_49"/>
<trip id="55" depart="18.799" fromJunction="4way_28" toJunction="4way_68"/>
<trip id="56" depart="19.1408" fromJunction="4way_30" toJunction="4way_51"/>
<trip id="57" depart="19.482599999999998" fromJunction="4way_49" toJunction="4way_51"/>
<trip id="58" depart="19.8244" fromJunction="4way_38" toJunction="4way_67"/>
<trip id="59" depart="20.1662" fromJunction="4way_13" toJunction="4way_43"/>
<trip id="60" depart="20.508" fromJunction="4way_48" toJunction="4way_46"/>
<trip id="61" depart="20.8498" fromJunction="3way_45" toJunction="3way_2"/>
<trip id="62" depart="21.1916" fromJunction="3way_54" toJunction="4way_22"/>
<trip id="63" depart="21.5334" fromJunction="4way_55" toJunction="4way_57"/>
<trip id="64" depart="21.8752" fromJunction="3way_54" toJunction="3way_44"/>
<trip id="65" depart="22.217" fromJunction="4way_39" toJunction="4way_21"/>
<trip id="66" depart="22.558799999999998" fromJunction="4way_22" toJunction="4way_30"/>
<trip id="67" depart="22.9006" fromJunction="4way_55" toJunction="4way_22"/>
<trip id="68" depart="23.2424" fromJunction="4way_10" toJunction="4way_69"/>
<trip id="69" depart="23.5842" fromJunction="4way_60" toJunction="4way_55"/>
<trip id="70" depart="23.926" fromJunction="4way_58" toJunction="4way_68"/>
<trip id="71" depart="24.2678" fromJunction="4way_16" toJunction="3way_17"/>
<trip id="72" depart="24.6096" fromJunction="4way_70" toJunction="4way_58"/>
<trip id="73" depart="24.9514" fromJunction="4way_42" toJunction="3way_53"/>
<trip id="74" depart="25.2932" fromJunction="4way_57" toJunction="3way_62"/>
<trip id="75" depart="25.634999999999998" fromJunction="4way_33" toJunction="3way_35"/>
<trip id="76" depart="25.9768" fromJunction="4way_21" toJunction="4way_68"/>
<trip id="77" depart="26.3186" fromJunction="3way_6" toJunction="4way_37"/>
<trip id="78" depart="26.6604" fromJunction="4way_64" toJunction="4way_49"/>
<trip id="79" depart="27.0022" fromJunction="4way_42" toJunction="4way_67"/>
<trip id="80" depart="27.344" fromJunction="4way_33" toJunction="4way_61"/>
<trip id="81" depart="27.6858" fromJunction="3way_9" toJunction="3way_1"/>
<trip id="82" depart="28.0276" fromJunction="3way_71" toJunction="4way_14"/>
<trip id="83" depart="28.3694" fromJunction="3way_5" toJunction="4way_56"/>
<trip id="84" depart="28.711199999999998" fromJunction="3way_2" toJunction="3way_78"/>
<trip id="85" depart="29.053" fromJunction="3way_76" toJunction="4way_59"/>
<trip id="86" depart="29.3948" fromJunction="4way_25" toJunction="3way_18"/>
<trip id="87" depart="29.7366" fromJunction="3way_3" toJunction="4way_58"/>
<trip id="88" depart="30.0784" fromJunction="4way_57" toJunction="3way_62"/>
<trip id="89" depart="30.420199999999998" fromJunction="3way_75" toJunction="4way_30"/>
<trip id="90" depart="30.762" fromJunction="4way_57" toJunction="4way_25"/>
<trip id="91" depart="31.1038" fromJunction="4way_39" toJunction="4way_65"/>
<trip id="92" depart="31.4456" fromJunction="3way_36" toJunction="4way_14"/>
<trip id="93" depart="31.787399999999998" fromJunction="3way_77" toJunction="4way_28"/>
<trip id="94" depart="32.1292" fromJunction="4way_34" toJunction="3way_79"/>
<trip id="95" depart="32.471" fromJunction="4way_29" toJunction="4way_14"/>
<trip id="96" depart="32.812799999999996" fromJunction="3way_74" toJunction="3way_76"/>
<trip id="97" depart="33.1546" fromJunction="4way_55" toJunction="3way_5"/>
<trip id="98" depart="33.4964" fromJunction="4way_49" toJunction="3way_36"/>
<trip id="99" depart="33.8382" fromJunction="3way_71" toJunction="4way_19"/>
<trip id="100" depart="34.18" fromJunction="3way_6" toJunction="3way_2"/>
<trip id="101" depart="34.5218" fromJunction="4way_64" toJunction="4way_40"/>
<trip id="102" depart="34.8636" fromJunction="4way_69" toJunction="4way_65"/>
<trip id="103" depart="35.2054" fromJunction="3way_77" toJunction="4way_70"/>
<trip id="104" depart="35.5472" fromJunction="3way_73" toJunction="4way_31"/>
<trip id="105" depart="35.888999999999996" fromJunction="4way_32" toJunction="3way_2"/>
<trip id="106" depart="36.2308" fromJunction="4way_19" toJunction="3way_36"/>
<trip id="107" depart="36.5726" fromJunction="4way_15" toJunction="4way_39"/>
<trip id="108" depart="36.9144" fromJunction="4way_51" toJunction="4way_66"/>
<trip id="109" depart="37.2562" fromJunction="4way_59" toJunction="3way_63"/>
<trip id="110" depart="37.598" fromJunction="4way_43" toJunction="3way_79"/>
<trip id="111" depart="37.9398" fromJunction="3way_77" toJunction="4way_40"/>
<trip id="112" depart="38.2816" fromJunction="4way_14" toJunction="4way_34"/>
<trip id="113" depart="38.6234" fromJunction="3way_77" toJunction="3way_74"/>
<trip id="114" depart="38.965199999999996" fromJunction="3way_2" toJunction="4way_47"/>
<trip id="115" depart="39.307" fromJunction="4way_46" toJunction="3way_78"/>
<trip id="116" depart="39.6488" fromJunction="4way_11" toJunction="4way_10"/>
<trip id="117" depart="39.9906" fromJunction="4way_39" toJunction="3way_63"/>
<trip id="118" depart="40.3324" fromJunction="3way_35" toJunction="4way_42"/>
<trip id="119" depart="40.6742" fromJunction="3way_44" toJunction="4way_47"/>
<trip id="120" depart="41.016" fromJunction="4way_28" toJunction="4way_67"/>
<trip id="121" depart="41.3578" fromJunction="3way_79" toJunction="4way_21"/>
<trip id="122" depart="41.6996" fromJunction="4way_29" toJunction="3way_53"/>
<trip id="123" depart="42.041399999999996" fromJunction="4way_34" toJunction="3way_9"/>
<trip id="124" depart="42.3832" fromJunction="4way_23" toJunction="4way_32"/>
<trip id="125" depart="42.725" fromJunction="3way_7" toJunction="4way_69"/>
<trip id="126" depart="43.0668" fromJunction="4way_39" toJunction="4way_12"/>
<trip id="127" depart="43.4086" fromJunction="3way_54" toJunction="4way_52"/>
<trip id="128" depart="43.7504" fromJunction="3way_17" toJunction="3way_75"/>
<trip id="129" depart="44.0922" fromJunction="4way_25" toJunction="3way_2"/>
<trip id="130" depart="44.434" fromJunction="4way_50" toJunction="4way_31"/>
<trip id="131" depart="44.7758" fromJunction="4way_39" toJunction="3way_63"/>
<trip id="132" depart="45.117599999999996" fromJunction="4way_29" toJunction="3way_5"/>
<trip id="133" depart="45.4594" fromJunction="4way_51" toJunction="4way_61"/>
<trip id="134" depart="45.8012" fromJunction="4way_52" toJunction="3way_18"/>
<trip id="135" depart="46.143" fromJunction="4way_43" toJunction="3way_76"/>
<trip id="136" depart="46.4848" fromJunction="4way_59" toJunction="4way_34"/>
<trip id="137" depart="46.8266" fromJunction="4way_51" toJunction="4way_66"/>
<trip id="138" depart="47.1684" fromJunction="4way_33" toJunction="3way_54"/>
<trip id="139" depart="47.5102" fromJunction="3way_2" toJunction="4way_57"/>
<trip id="140" depart="47.852" fromJunction="3way_53" toJunction="3way_18"/>
<trip id="141" depart="48.193799999999996" fromJunction="4way_20" toJunction="4way_61"/>
<trip id="142" depart="48.5356" fromJunction="4way_13" toJunction="4way_38"/>
<trip id="143" depart="48.8774" fromJunction="3way_44" toJunction="4way_10"/>
<trip id="144" depart="49.2192" fromJunction="3way_79" toJunction="4way_15"/>
<trip id="145" depart="49.561" fromJunction="3way_76" toJunction="4way_47"/>
<trip id="146" depart="49.9028" fromJunction="4way_42" toJunction="3way_17"/>
<trip id="147" depart="50.2446" fromJunction="4way_43" toJunction="4way_52"/>
<trip id="148" depart="50.5864" fromJunction="4way_41" toJunction="4way_69"/>
<trip id="149" depart="50.9282" fromJunction="3way_7" toJunction="3way_27"/>
<trip id="150" depart="51.269999999999996" fromJunction="3way_76" toJunction="4way_37"/>
<trip id="151" depart="51.6118" fromJunction="3way_5" toJunction="3way_44"/>
<trip id="152" depart="51.9536" fromJunction="3way_1" toJunction="4way_67"/>
<trip id="153" depart="52.2954" fromJunction="3way_53" toJunction="4way_41"/>
<trip id="154" depart="52.6372" fromJunction="3way_75" toJunction="4way_31"/>
<trip id="155" depart="52.979" fromJunction="4way_12" toJunction="4way_46"/>
<trip id="156" depart="53.3208" fromJunction="4way_67" toJunction="4way_42"/>
<trip id="157" depart="53.6626" fromJunction="3way_44" toJunction="3way_73"/>
<trip id="158" depart="54.0044" fromJunction="3way_45" toJunction="3way_5"/>
<trip id="159" depart="54.346199999999996" fromJunction="4way_11" toJunction="3way_73"/>
<trip id="160" depart="54.688" fromJunction="4way_49" toJunction="4way_40"/>
<trip id="161" depart="55.0298" fromJunction="4way_19" toJunction="3way_63"/>
<trip id="162" depart="55.3716" fromJunction="4way_50" toJunction="3way_71"/>
<trip id="163" depart="55.7134" fromJunction="4way_49" toJunction="3way_5"/>
<trip id="164" depart="56.0552" fromJunction="4way_10" toJunction="3way_74"/>
<trip id="165" depart="56.397" fromJunction="3way_63" toJunction="4way_39"/>
<trip id="166" depart="56.7388" fromJunction="3way_78" toJunction="4way_10"/>
<trip id="167" depart="57.0806" fromJunction="3way_4" toJunction="4way_11"/>
<trip id="168" depart="57.422399999999996" fromJunction="3way_6" toJunction="4way_59"/>
<trip id="169" depart="57.764199999999995" fromJunction="3way_45" toJunction="4way_47"/>
<trip id="170" depart="58.106" fromJunction="4way_43" toJunction="4way_30"/>
<trip id="171" depart="58.4478" fromJunction="3way_3" toJunction="4way_13"/>
<trip id="172" depart="58.7896" fromJunction="4way_47" toJunction="4way_55"/>
<trip id="173" depart="59.1314" fromJunction="4way_40" toJunction="4way_65"/>
<trip id="174" depart="59.4732" fromJunction="3way_35" toJunction="3way_63"/>
<trip id="175" depart="59.815" fromJunction="4way_43" toJunction="4way_28"/>
<trip id="176" depart="60.1568" fromJunction="4way_69" toJunction="3way_79"/>
<trip id="177" depart="60.498599999999996" fromJunction="4way_11" toJunction="4way_65"/>
<trip id="178" depart="60.840399999999995" fromJunction="4way_11" toJunction="4way_51"/>
<trip id="179" depart="61.1822" fromJunction="4way_28" toJunction="4way_67"/>
<trip id="180" depart="61.524" fromJunction="4way_49" toJunction="4way_69"/>
<trip id="181" depart="61.8658" fromJunction="3way_27" toJunction="4way_49"/>
<trip id="182" depart="62.2076" fromJunction="4way_66" toJunction="4way_32"/>
<trip id="183" depart="62.5494" fromJunction="3way_62" toJunction="3way_75"/>
<trip id="184" depart="62.8912" fromJunction="4way_43" toJunction="4way_59"/>
<trip id="185" depart="63.233" fromJunction="4way_39" toJunction="4way_11"/>
<trip id="186" depart="63.574799999999996" fromJunction="4way_11" toJunction="4way_42"/>
<trip id="187" depart="63.916599999999995" fromJunction="4way_30" toJunction="4way_43"/>
<trip id="188" depart="64.2584" fromJunction="4way_69" toJunction="4way_15"/>
<trip id="189" depart="64.6002" fromJunction="3way_62" toJunction="4way_68"/>
<trip id="190" depart="64.942" fromJunction="4way_28" toJunction="4way_66"/>
<trip id="191" depart="65.2838" fromJunction="4way_46" toJunction="3way_5"/>
<trip id="192" depart="65.62559999999999" fromJunction="4way_33" toJunction="3way_74"/>
<trip id="193" depart="65.9674" fromJunction="4way_43" toJunction="3way_3"/>
<trip id="194" depart="66.3092" fromJunction="3way_79" toJunction="3way_2"/>
<trip id="195" depart="66.651" fromJunction="4way_25" toJunction="4way_28"/>
<trip id="196" depart="66.9928" fromJunction="4way_34" toJunction="3way_17"/>
<trip id="197" depart="67.3346" fromJunction="4way_64" toJunction="4way_42"/>
<trip id="198" depart="67.6764" fromJunction="3way_76" toJunction="3way_27"/>
<trip id="199" depart="68.0182" fromJunction="3way_3" toJunction="4way_57"/>
<trip id="200" depart="68.36" fromJunction="4way_55" toJunction="3way_2"/>
<trip id="201" depart="68.70179999999999" fromJunction="3way_74" toJunction="3way_6"/>
<trip id="202" depart="69.0436" fromJunction="3way_74" toJunction="3way_76"/>
<trip id="203" depart="69.3854" fromJunction="3way_1" toJunction="3way_44"/>
<trip id="204" depart="69.7272" fromJunction="4way_57" toJunction="3way_26"/>
<trip id="205" depart="70.069" fromJunction="4way_70" toJunction="4way_61"/>
<trip id="206" depart="70.4108" fromJunction="3way_62" toJunction="4way_37"/>
<trip id="207" depart="70.7526" fromJunction="4way_29" toJunction="4way_13"/>
<trip id="208" depart="71.0944" fromJunction="3way_6" toJunction="4way_70"/>
<trip id="209" depart="71.4362" fromJunction="3way_54" toJunction="4way_50"/>
<trip id="210" depart="71.77799999999999" fromJunction="4way_31" toJunction="3way_75"/>
<trip id="211" depart="72.1198" fromJunction="4way_31" toJunction="3way_75"/>
<trip id="212" depart="72.4616" fromJunction="4way_46" toJunction="4way_47"/>
<trip id="213" depart="72.8034" fromJunction="3way_54" toJunction="4way_12"/>
<trip id="214" depart="73.1452" fromJunction="4way_37" toJunction="4way_58"/>
<trip id="215" depart="73.487" fromJunction="4way_15" toJunction="3way_9"/>
<trip id="216" depart="73.8288" fromJunction="3way_4" toJunction="4way_25"/>
<trip id="217" depart="74.1706" fromJunction="3way_18" toJunction="3way_76"/>
<trip id="218" depart="74.5124" fromJunction="4way_61" toJunction="4way_68"/>
<trip id="219" depart="74.85419999999999" fromJunction="4way_69" toJunction="4way_52"/>
<trip id="220" depart="75.196" fromJunction="4way_70" toJunction="3way_54"/>
<trip id="221" depart="75.5378" fromJunction="3way_26" toJunction="3way_74"/>
<trip id="222" depart="75.8796" fromJunction="3way_76" toJunction="4way_43"/>
<trip id="223" depart="76.2214" fromJunction="3way_5" toJunction="4way_49"/>
<trip id="224" depart="76.5632" fromJunction="4way_51" toJunction="4way_14"/>
<trip id="225" depart="76.905" fromJunction="4way_19" toJunction="3way_73"/>
<trip id="226" depart="77.2468" fromJunction="4way_23" toJunction="4way_10"/>
<trip id="227" depart="77.5886" fromJunction="3way_71" toJunction="3way_75"/>
<trip id="228" depart="77.93039999999999" fromJunction="3way_45" toJunction="4way_64"/>
<trip id="229" depart="78.2722" fromJunction="3way_75" toJunction="4way_24"/>
<trip id="230" depart="78.614" fromJunction="4way_34" toJunction="4way_38"/>
<trip id="231" depart="78.9558" fromJunction="4way_42" toJunction="4way_66"/>
<trip id="232" depart="79.2976" fromJunction="4way_23" toJunction="4way_34"/>
<trip id="233" depart="79.6394" fromJunction="4way_52" toJunction="4way_49"/>
<trip id="234" depart="79.9812" fromJunction="4way_64" toJunction="4way_70"/>
<trip id="235" depart="80.323" fromJunction="3way_54" toJunction="3way_6"/>
<trip id="236" depart="80.6648" fromJunction="4way_46" toJunction="3way_53"/>
<trip id="237" depart="81.00659999999999" fromJunction="4way_48" toJunction="3way_44"/>
<trip id="238" depart="81.3484" fromJunction="4way_60" toJunction="4way_19"/>
<trip id="239" depart="81.6902" fromJunction="4way_12" toJunction="4way_52"/>
<trip id="240" depart="82.032" fromJunction="4way_39" toJunction="3way_63"/>
<trip id="241" depart="82.3738" fromJunction="4way_37" toJunction="4way_69"/>
<trip id="242" depart="82.7156" fromJunction="3way_73" toJunction="4way_12"/>
<trip id="243" depart="83.0574" fromJunction="4way_28" toJunction="4way_11"/>
<trip id="244" depart="83.3992" fromJunction="4way_38" toJunction="3way_74"/>
<trip id="245" depart="83.741" fromJunction="4way_10" toJunction="3way_45"/>
<trip id="246" depart="84.08279999999999" fromJunction="4way_23" toJunction="4way_56"/>
<trip id="247" depart="84.4246" fromJunction="4way_25" toJunction="3way_27"/>
<trip id="248" depart="84.7664" fromJunction="3way_4" toJunction="4way_42"/>
<trip id="249" depart="85.1082" fromJunction="4way_64" toJunction="3way_74"/>
<trip id="250" depart="85.45" fromJunction="3way_18" toJunction="3way_26"/>
<trip id="251" depart="85.7918" fromJunction="4way_40" toJunction="4way_14"/>
<trip id="252" depart="86.1336" fromJunction="4way_58" toJunction="4way_57"/>
<trip id="253" depart="86.4754" fromJunction="3way_18" toJunction="3way_78"/>
<trip id="254" depart="86.8172" fromJunction="4way_51" toJunction="4way_40"/>
<trip id="255" depart="87.15899999999999" fromJunction="3way_63" toJunction="4way_65"/>
<trip id="256" depart="87.5008" fromJunction="4way_58" toJunction="3way_3"/>
<trip id="257" depart="87.8426" fromJunction="4way_10" toJunction="3way_1"/>
<trip id="258" depart="88.1844" fromJunction="4way_25" toJunction="4way_56"/>
<trip id="259" depart="88.5262" fromJunction="4way_37" toJunction="3way_7"/>
<trip id="260" depart="88.868" fromJunction="3way_18" toJunction="3way_2"/>
<trip id="261" depart="89.2098" fromJunction="3way_63" toJunction="4way_57"/>
<trip id="262" depart="89.5516" fromJunction="3way_26" toJunction="3way_77"/>
<trip id="263" depart="89.8934" fromJunction="4way_49" toJunction="4way_30"/>
<trip id="264" depart="90.23519999999999" fromJunction="4way_43" toJunction="4way_31"/>
<trip id="265" depart="90.577" fromJunction="4way_13" toJunction="3way_1"/>
<trip id="266" depart="90.9188" fromJunction="4way_39" toJunction="4way_48"/>
<trip id="267" depart="91.2606" fromJunction="3way_2" toJunction="4way_52"/>
<trip id="268" depart="91.6024" fromJunction="4way_68" toJunction="4way_49"/>
<trip id="269" depart="91.9442" fromJunction="3way_27" toJunction="4way_47"/>
<trip id="270" depart="92.286" fromJunction="3way_17" toJunction="4way_50"/>
<trip id="271" depart="92.6278" fromJunction="4way_56" toJunction="4way_64"/>
<trip id="272" depart="92.9696" fromJunction="3way_7" toJunction="4way_49"/>
<trip id="273" depart="93.31139999999999" fromJunction="4way_37" toJunction="3way_76"/>
<trip id="274" depart="93.6532" fromJunction="4way_60" toJunction="4way_57"/>
<trip id="275" depart="93.995" fromJunction="3way_44" toJunction="4way_57"/>
<trip id="276" depart="94.3368" fromJunction="4way_51" toJunction="4way_61"/>
<trip id="277" depart="94.6786" fromJunction="4way_25" toJunction="4way_38"/>
<trip id="278" depart="95.0204" fromJunction="4way_25" toJunction="4way_65"/>
<trip id="279" depart="95.3622" fromJunction="4way_52" toJunction="4way_15"/>
<trip id="280" depart="95.704" fromJunction="3way_3" toJunction="4way_16"/>
<trip id="281" depart="96.0458" fromJunction="4way_19" toJunction="3way_71"/>
<trip id="282" depart="96.38759999999999" fromJunction="3way_45" toJunction="4way_43"/>
<trip id="283" depart="96.7294" fromJunction="4way_60" toJunction="3way_62"/>
<trip id="284" depart="97.0712" fromJunction="4way_69" toJunction="4way_64"/>
<trip id="285" depart="97.413" fromJunction="4way_22" toJunction="3way_62"/>
<trip id="286" depart="97.7548" fromJunction="3way_6" toJunction="4way_55"/>
<trip id="287" depart="98.0966" fromJunction="3way_74" toJunction="4way_49"/>
<trip id="288" depart="98.4384" fromJunction="3way_5" toJunction="3way_4"/>
<trip id="289" depart="98.7802" fromJunction="4way_69" toJunction="3way_5"/>
<trip id="290" depart="99.122" fromJunction="4way_69" toJunction="4way_14"/>
<trip id="291" depart="99.46379999999999" fromJunction="4way_56" toJunction="4way_31"/>
<trip id="292" depart="99.8056" fromJunction="4way_70" toJunction="3way_45"/>
<trip id="293" depart="100.1474" fromJunction="4way_20" toJunction="3way_9"/>
<trip id="294" depart="100.4892" fromJunction="4way_61" toJunction="4way_19"/>
<trip id="295" depart="100.831" fromJunction="3way_27" toJunction="3way_71"/>
<trip id="296" depart="101.1728" fromJunction="3way_5" toJunction="4way_40"/>
<trip id="297" depart="101.5146" fromJunction="4way_20" toJunction="4way_48"/>
<trip id="298" depart="101.8564" fromJunction="3way_75" toJunction="3way_63"/>
<trip id="299" depart="102.1982" fromJunction="4way_10" toJunction="4way_47"/>
<trip id="300" depart="102.53999999999999" fromJunction="3way_27" toJunction="4way_11"/>
<trip id="301" depart="102.8818" fromJunction="3way_44" toJunction="4way_52"/>
<trip id="302" depart="103.2236" fromJunction="3way_18" toJunction="3way_17"/>
<trip id="303" depart="103.5654" fromJunction="4way_22" toJunction="4way_39"/>
<trip id="304" depart="103.9072" fromJunction="4way_70" toJunction="4way_28"/>
<trip id="305" depart="104.249" fromJunction="4way_67" toJunction="3way_9"/>
<trip id="306" depart="104.5908" fromJunction="4way_68" toJunction="4way_13"/>
<trip id="307" depart="104.9326" fromJunction="4way_60" toJunction="4way_61"/>
<trip id="308" depart="105.2744" fromJunction="4way_49" toJunction="4way_32"/>
<trip id="309" depart="105.61619999999999" fromJunction="3way_53" toJunction="3way_27"/>
<trip id="310" depart="105.958" fromJunction="3way_75" toJunction="3way_5"/>
<trip id="311" depart="106.2998" fromJunction="4way_56" toJunction="4way_55"/>
<trip id="312" depart="106.6416" fromJunction="4way_43" toJunction="4way_41"/>
<trip id="313" depart="106.9834" fromJunction="3way_26" toJunction="3way_35"/>
<trip id="314" depart="107.3252" fromJunction="4way_23" toJunction="4way_39"/>
<trip id="315" depart="107.667" fromJunction="4way_34" toJunction="4way_33"/>
<trip id="316" depart="108.0088" fromJunction="4way_28" toJunction="4way_61"/>
<trip id="317" depart="108.3506" fromJunction="3way_53" toJunction="4way_19"/>
<trip id="318" depart="108.69239999999999" fromJunction="4way_22" toJunction="4way_40"/>
<trip id="319" depart="109.0342" fromJunction="3way_17" toJunction="4way_42"/>
<trip id="320" depart="109.376" fromJunction="4way_30" toJunction="4way_38"/>
<trip id="321" depart="109.7178" fromJunction="3way_71" toJunction="3way_75"/>
<trip id="322" depart="110.0596" fromJunction="3way_5" toJunction="4way_42"/>
<trip id="323" depart="110.4014" fromJunction="3way_26" toJunction="4way_20"/>
<trip id="324" depart="110.7432" fromJunction="4way_61" toJunction="4way_11"/>
<trip id="325" depart="111.085" fromJunction="4way_33" toJunction="4way_46"/>
<trip id="326" depart="111.4268" fromJunction="3way_73" toJunction="3way_35"/>
<trip id="327" depart="111.76859999999999" fromJunction="4way_28" toJunction="4way_37"/>
<trip id="328" depart="112.1104" fromJunction="3way_18" toJunction="4way_31"/>
<trip id="329" depart="112.45219999999999" fromJunction="4way_13" toJunction="4way_58"/>
<trip id="330" depart="112.794" fromJunction="4way_55" toJunction="4way_28"/>
<trip id="331" depart="113.1358" fromJunction="3way_6" toJunction="4way_57"/>
<trip id="332" depart="113.4776" fromJunction="4way_22" toJunction="4way_15"/>
<trip id="333" depart="113.8194" fromJunction="4way_65" toJunction="4way_67"/>
<trip id="334" depart="114.1612" fromJunction="4way_37" toJunction="3way_26"/>
<trip id="335" depart="114.503" fromJunction="3way_36" toJunction="4way_37"/>
<trip id="336" depart="114.84479999999999" fromJunction="4way_14" toJunction="3way_3"/>
<trip id="337" depart="115.1866" fromJunction="4way_48" toJunction="3way_26"/>
<trip id="338" depart="115.52839999999999" fromJunction="4way_66" toJunction="4way_58"/>
<trip id="339" depart="115.8702" fromJunction="3way_17" toJunction="4way_43"/>
<trip id="340" depart="116.212" fromJunction="3way_3" toJunction="4way_42"/>
<trip id="341" depart="116.5538" fromJunction="4way_37" toJunction="4way_65"/>
<trip id="342" depart="116.8956" fromJunction="4way_10" toJunction="4way_56"/>
<trip id="343" depart="117.2374" fromJunction="3way_2" toJunction="3way_79"/>
<trip id="344" depart="117.5792" fromJunction="4way_24" toJunction="4way_47"/>
<trip id="345" depart="117.92099999999999" fromJunction="3way_76" toJunction="4way_10"/>
<trip id="346" depart="118.2628" fromJunction="3way_17" toJunction="3way_76"/>
<trip id="347" depart="118.60459999999999" fromJunction="3way_6" toJunction="3way_73"/>
<trip id="348" depart="118.9464" fromJunction="4way_33" toJunction="3way_6"/>
<trip id="349" depart="119.2882" fromJunction="4way_21" toJunction="3way_62"/>
<trip id="350" depart="119.63" fromJunction="4way_11" toJunction="4way_41"/>
<trip id="351" depart="119.9718" fromJunction="3way_78" toJunction="3way_53"/>
<trip id="352" depart="120.3136" fromJunction="4way_56" toJunction="4way_55"/>
<trip id="353" depart="120.6554" fromJunction="4way_50" toJunction="3way_18"/>
<trip id="354" depart="120.99719999999999" fromJunction="4way_25" toJunction="4way_23"/>
<trip id="355" depart="121.339" fromJunction="4way_60" toJunction="3way_3"/>
<trip id="356" depart="121.68079999999999" fromJunction="4way_51" toJunction="4way_28"/>
<trip id="357" depart="122.0226" fromJunction="4way_70" toJunction="4way_49"/>
<trip id="358" depart="122.3644" fromJunction="4way_10" toJunction="4way_32"/>
<trip id="359" depart="122.7062" fromJunction="4way_10" toJunction="4way_38"/>
<trip id="360" depart="123.048" fromJunction="3way_73" toJunction="4way_10"/>
<trip id="361" depart="123.3898" fromJunction="4way_40" toJunction="4way_38"/>
<trip id="362" depart="123.7316" fromJunction="4way_56" toJunction="3way_63"/>
<trip id="363" depart="124.07339999999999" fromJunction="3way_62" toJunction="3way_35"/>
<trip id="364" depart="124.4152" fromJunction="4way_52" toJunction="3way_4"/>
<trip id="365" depart="124.75699999999999" fromJunction="3way_71" toJunction="3way_1"/>
<trip id="366" depart="125.0988" fromJunction="3way_7" toJunction="4way_57"/>
<trip id="367" depart="125.4406" fromJunction="4way_67" toJunction="4way_51"/>
<trip id="368" depart="125.7824" fromJunction="4way_47" toJunction="4way_52"/>
<trip id="369" depart="126.1242" fromJunction="4way_12" toJunction="3way_45"/>
<trip id="370" depart="126.466" fromJunction="4way_56" toJunction="4way_25"/>
<trip id="371" depart="126.8078" fromJunction="4way_51" toJunction="3way_73"/>
<trip id="372" depart="127.14959999999999" fromJunction="3way_1" toJunction="4way_10"/>
<trip id="373" depart="127.4914" fromJunction="3way_36" toJunction="3way_74"/>
<trip id="374" depart="127.83319999999999" fromJunction="4way_11" toJunction="4way_42"/>
<trip id="375" depart="128.175" fromJunction="3way_27" toJunction="4way_64"/>
<trip id="376" depart="128.5168" fromJunction="4way_34" toJunction="4way_51"/>
<trip id="377" depart="128.8586" fromJunction="4way_19" toJunction="4way_70"/>