<?xml version="1.0" encoding="UTF-8"?>
<nodes xmlns:xsi="http://www.w3.org/2001/XMLSchema-instance" xsi:noNamespaceSchemaLocation="http://sumo.dlr.de/xsd/nodes_file.xsd">
    <node id="3way_1" x="100.00" y="0.00" type="traffic_light" tlLayout="opposites"/>
    <node id="3way_15" x="700.00" y="-100.00" type="traffic_light" tlLayout="opposites"/>
    <node id="3way_16" x="0.00" y="-200.00" type="traffic_light" tlLayout="opposites"/>
    <node id="3way_2" x="200.00" y="0.00" type="traffic_light" tlLayout="opposites"/>
    <node id="3way_23" x="700.00" y="-200.00" type="traffic_light" tlLayout="opposites"/>
    <node id="3way_24" x="0.00" y="-300.00" type="traffic_light" tlLayout="opposites"/>
    <node id="3way_3" x="300.00" y="0.00" type="traffic_light" tlLayout="opposites"/>
    <node id="3way_31" x="700.00" y="-300.00" type="traffic_light" tlLayout="opposites"/>
    <node id="3way_32" x="0.00" y="-400.00" type="traffic_light" tlLayout="opposites"/>
    <node id="3way_39" x="700.00" y="-400.00" type="traffic_light" tlLayout="opposites"/>
    <node id="3way_4" x="400.00" y="0.00" type="traffic_light" tlLayout="opposites"/>
    <node id="3way_40" x="0.00" y="-500.00" type="traffic_light" tlLayout="opposites"/>
    <node id="3way_47" x="700.00" y="-500.00" type="traffic_light" tlLayout="opposites"/>
    <node id="3way_48" x="0.00" y="-600.00" type="traffic_light" tlLayout="opposites"/>
    <node id="3way_5" x="500.00" y="0.00" type="traffic_light" tlLayout="opposites"/>
    <node id="3way_55" x="700.00" y="-600.00" type="traffic_light" tlLayout="opposites"/>
    <node id="3way_57" x="100.00" y="-700.00" type="traffic_light" tlLayout="opposites"/>
    <node id="3way_58" x="200.00" y="-700.00" type="traffic_light" tlLayout="opposites"/>
    <node id="3way_59" x="300.00" y="-700.00" type="traffic_light" tlLayout="opposites"/>
    <node id="3way_6" x="600.00" y="0.00" type="traffic_light" tlLayout="opposites"/>
    <node id="3way_60" x="400.00" y="-700.00" type="traffic_light" tlLayout="opposites"/>
    <node id="3way_61" x="500.00" y="-700.00" type="traffic_light" tlLayout="opposites"/>
    <node id="3way_62" x="600.00" y="-700.00" type="traffic_light" tlLayout="opposites"/>
    <node id="3way_8" x="0.00" y="-100.00" type="traffic_light" tlLayout="opposites"/>
    <node id="4way_10" x="200.00" y="-100.00" type="traffic_light" tlLayout="opposites"/>
    <node id="4way_11" x="300.00" y="-100.00" type="traffic_light" tlLayout="opposites"/>
    <node id="4way_12" x="400.00" y="-100.00" type="traffic_light" tlLayout="opposites"/>
    <node id="4way_13" x="500.00" y="-100.00" type="traffic_light" tlLayout="opposites"/>
    <node id="4way_14" x="600.00" y="-100.00" type="traffic_light" tlLayout="opposites"/>
    <node id="4way_17" x="100.00" y="-200.00" type="traffic_light" tlLayout="opposites"/>
    <node id="4way_18" x="200.00" y="-200.00" type="traffic_light" tlLayout="opposites"/>
    <node id="4way_19" x="300.00" y="-200.00" type="traffic_light" tlLayout="opposites"/>
    <node id="4way_20" x="400.00" y="-200.00" type="traffic_light" tlLayout="opposites"/>
    <node id="4way_21" x="500.00" y="-200.00" type="traffic_light" tlLayout="opposites"/>
    <node id="4way_22" x="600.00" y="-200.00" type="traffic_light" tlLayout="opposites"/>
    <node id="4way_25" x="100.00" y="-300.00" type="traffic_light" tlLayout="opposites"/>
    <node id="4way_26" x="200.00" y="-300.00" type="traffic_light" tlLayout="opposites"/>
    <node id="4way_27" x="300.00" y="-300.00" type="traffic_light" tlLayout="opposites"/>
    <node id="4way_28" x="400.00" y="-300.00" type="traffic_light" tlLayout="opposites"/>
    <node id="4way_29" x="500.00" y="-300.00" type="traffic_light" tlLayout="opposites"/>
    <node id="4way_30" x="600.00" y="-300.00" type="traffic_light" tlLayout="opposites"/>
    <node id="4way_33" x="100.00" y="-400.00" type="traffic_light" tlLayout="opposites"/>
    <node id="4way_34" x="200.00" y="-400.00" type="traffic_light" tlLayout="opposites"/>
    <node id="4way_35" x="300.00" y="-400.00" type="traffic_light" tlLayout="opposites"/>
    <node id="4way_36" x="400.00" y="-400.00" type="traffic_light" tlLayout="opposites"/>
    <node id="4way_37" x="500.00" y="-400.00" type="traffic_light" tlLayout="opposites"/>
    <node id="4way_38" x="600.00" y="-400.00" type="traffic_light" tlLayout="opposites"/>
    <node id="4way_41" x="100.00" y="-500.00" type="traffic_light" tlLayout="opposites"/>
    <node id="4way_42" x="200.00" y="-500.00" type="traffic_light" tlLayout="opposites"/>
    <node id="4way_43" x="300.00" y="-500.00" type="traffic_light" tlLayout="opposites"/>
    <node id="4way_44" x="400.00" y="-500.00" type="traffic_light" tlLayout="opposites"/>
    <node id="4way_45" x="500.00" y="-500.00" type="traffic_light" tlLayout="opposites"/>
    <node id="4way_46" x="600.00" y="-500.00" type="traffic_light" tlLayout="opposites"/>
    <node id="4way_49" x="100.00" y="-600.00" type="traffic_light" tlLayout="opposites"/>
    <node id="4way_50" x="200.00" y="-600.00" type="traffic_light" tlLayout="opposites"/>
    <node id="4way_51" x="300.00" y="-600.00" type="traffic_light" tlLayout="opposites"/>
    <node id="4way_52" x="400.00" y="-600.00" type="traffic_light" tlLayout="opposites"/>
    <node id="4way_53" x="500.00" y="-600.00" type="traffic_light" tlLayout="opposites"/>
    <node id="4way_54" x="600.00" y="-600.00" type="traffic_light" tlLayout="opposites"/>
    <node id="4way_9" x="100.00" y="-100.00" type="traffic_light" tlLayout="opposites"/>
</nodes>
