<routes xmlns:xsi="http://www.w3.org/2001/XMLSchema-instance" xsi:noNamespaceSchemaLocation="http://sumo.dlr.de/xsd/routes_file.xsd">
<trip id="0" depart="0.0" fromJunction="4way_67" toJunction="4way_12"/>
<trip id="1" depart="0.2614" fromJunction="4way_65" toJunction="4way_48"/>
<trip id="2" depart="0.5228" fromJunction="4way_13" toJunction="4way_46"/>
<trip id="3" depart="0.7842" fromJunction="4way_60" toJunction="4way_55"/>
<trip id="4" depart="1.0456" fromJunction="4way_19" toJunction="4way_52"/>
<trip id="5" depart="1.3070000000000002" fromJunction="4way_56" toJunction="4way_50"/>
<trip id="6" depart="1.5684" fromJunction="4way_25" toJunction="4way_21"/>
<trip id="7" depart="1.8298" fromJunction="3way_7" toJunction="3way_6"/>
<trip id="8" depart="2.0912" fromJunction="4way_24" toJunction="3way_2"/>
<trip id="9" depart="2.3526000000000002" fromJunction="4way_42" toJunction="4way_41"/>
<trip id="10" depart="2.6140000000000003" fromJunction="4way_59" toJunction="4way_61"/>
<trip id="11" depart="2.8754000000000004" fromJunction="4way_50" toJunction="4way_11"/>
<trip id="12" depart="3.1368" fromJunction="4way_13" toJunction="3way_35"/>
<trip id="13" depart="3.3982" fromJunction="4way_34" toJunction="3way_53"/>
<trip id="14" depart="3.6596" fromJunction="4way_37" toJunction="4way_56"/>
<trip id="15" depart="3.9210000000000003" fromJunction="4way_41" toJunction="3way_73"/>
<trip id="16" depart="4.1824" fromJunction="4way_21" toJunction="4way_11"/>
<trip id="17" depart="4.4438" fromJunction="4way_57" toJunction="3way_2"/>
<trip id="18" depart="4.7052000000000005" fromJunction="4way_40" toJunction="4way_34"/>
<trip id="19" depart="4.966600000000001" fromJunction="4way_55" toJunction="3way_9"/>
<trip id="20" depart="5.228000000000001" fromJunction="3way_5" toJunction="4way_49"/>
<trip id="21" depart="5.489400000000001" fromJunction="3way_35" toJunction="3way_77"/>
<trip id="22" depart="5.750800000000001" fromJunction="4way_10" toJunction="3way_36"/>
<trip id="23" depart="6.012200000000001" fromJunction="4way_55" toJunction="4way_21"/>
<trip id="24" depart="6.2736" fromJunction="3way_17" toJunction="4way_70"/>
<trip id="25" depart="6.535" fromJunction="3way_62" toJunction="3way_77"/>
<trip id="26" depart="6.7964" fromJunction="3way_74" toJunction="4way_22"/>
<trip id="27" depart="7.0578" fromJunction="3way_75" toJunction="4way_11"/>
<trip id="28" depart="7.3192" fromJunction="3way_26" toJunction="3way_62"/>
<trip id="29" depart="7.5806000000000004" fromJunction="3way_44" toJunction="4way_22"/>
<trip id="30" depart="7.8420000000000005" fromJunction="4way_10" toJunction="3way_78"/>
<trip id="31" depart="8.1034" fromJunction="3way_17" toJunction="4way_15"/>
<trip id="32" depart="8.3648" fromJunction="3way_17" toJunction="4way_24"/>
<trip id="33" depart="8.6262" fromJunction="4way_20" toJunction="4way_61"/>
<trip id="34" depart="8.8876" fromJunction="4way_48" toJunction="4way_61"/>
<trip id="35" depart="9.149000000000001" fromJunction="3way_4" toJunction="4way_14"/>
<trip id="36" depart="9.410400000000001" fromJunction="3way_35" toJunction="3way_63"/>
<trip id="37" depart="9.671800000000001" fromJunction="3way_35" toJunction="3way_54"/>
<trip id="38" depart="9.933200000000001" fromJunction="4way_37" toJunction="3way_36"/>
<trip id="39" depart="10.194600000000001" fromJunction="4way_49" toJunction="3way_5"/>
<trip id="40" depart="10.456000000000001" fromJunction="3way_73" toJunction="4way_21"/>
<trip id="41" depart="10.717400000000001" fromJunction="3way_17" toJunction="4way_56"/>
<trip id="42" depart="10.978800000000001" fromJunction="4way_25" toJunction="4way_30"/>
<trip id="43" depart="11.240200000000002" fromJunction="4way_31" toJunction="3way_36"/>
<trip id="44" depart="11.501600000000002" fromJunction="4way_67" toJunction="3way_44"/>
<trip id="45" depart="11.763000000000002" fromJunction="3way_79" toJunction="3way_54"/>
<trip id="46" depart="12.024400000000002" fromJunction="3way_2" toJunction="4way_39"/>
<trip id="47" depart="12.285800000000002" fromJunction="3way_1" toJunction="4way_15"/>
<trip id="48" depart="12.5472" fromJunction="3way_73" toJunction="4way_40"/>
<trip id="49" depart="12.8086" fromJunction="4way_52" toJunction="4way_14"/>
<trip id="50" depart="13.07" fromJunction="4way_30" toJunction="3way_74"/>
<trip id="51" depart="13.3314" fromJunction="4way_30" toJunction="4way_39"/>
<trip id="52" depart="13.5928" fromJunction="4way_43" toJunction="3way_76"/>
<trip id="53" depart="13.8542" fromJunction="4way_33" toJunction="4way_64"/>
<trip id="54" depart="14.1156" fromJunction="3way_54" toJunction="4way_49"/>
<trip id="55" depart="14.377" fromJunction="4way_28" toJunction="4way_68"/>
<trip id="56" depart="14.6384" fromJunction="4way_30" toJunction="4way_51"/>
<trip id="57" depart="14.8998" fromJunction="4way_49" toJunction="4way_51"/>
<trip id="58" depart="15.161200000000001" fromJunction="4way_38" toJunction="4way_67"/>
<trip id="59" depart="15.422600000000001" fromJunction="4way_13" toJunction="4way_43"/>
<trip id="60" depart="15.684000000000001" fromJunction="4way_48" toJunction="4way_46"/>
<trip id="61" depart="15.945400000000001" fromJunction="3way_45" toJunction="3way_2"/>
<trip id="62" depart="16.2068" fromJunction="3way_54" toJunction="4way_22"/>
<trip id="63" depart="16.468200000000003" fromJunction="4way_55" toJunction="4way_57"/>
<trip id="64" depart="16.7296" fromJunction="3way_54" toJunction="3way_44"/>
<trip id="65" depart="16.991" fromJunction="4way_39" toJunction="4way_21"/>
<trip id="66" depart="17.2524" fromJunction="4way_22" toJunction="4way_30"/>
<trip id="67" depart="17.5138" fromJunction="4way_55" toJunction="4way_22"/>
<trip id="68" depart="17.7752" fromJunction="4way_10" toJunction="4way_69"/>
<trip id="69" depart="18.0366" fromJunction="4way_60" toJunction="4way_55"/>
<trip id="70" depart="18.298000000000002" fromJunction="4way_58" toJunction="4way_68"/>
<trip id="71" depart="18.5594" fromJunction="4way_16" toJunction="3way_17"/>
<trip id="72" depart="18.820800000000002" fromJunction="4way_70" toJunction="4way_58"/>
<trip id="73" depart="19.0822" fromJunction="4way_42" toJunction="3way_53"/>
<trip id="74" depart="19.343600000000002" fromJunction="4way_57" toJunction="3way_62"/>
<trip id="75" depart="19.605" fromJunction="4way_33" toJunction="3way_35"/>
<trip id="76" depart="19.866400000000002" fromJunction="4way_21" toJunction="4way_68"/>
<trip id="77" depart="20.1278" fromJunction="3way_6" toJunction="4way_37"/>
<trip id="78" depart="20.389200000000002" fromJunction="4way_64" toJunction="4way_49"/>
<trip id="79" depart="20.6506" fromJunction="4way_42" toJunction="4way_67"/>
<trip id="80" depart="20.912000000000003" fromJunction="4way_33" toJunction="4way_61"/>
<trip id="81" depart="21.1734" fromJunction="3way_9" toJunction="3way_1"/>
<trip id="82" depart="21.434800000000003" fromJunction="3way_71" toJunction="4way_14"/>
<trip id="83" depart="21.6962" fromJunction="3way_5" toJunction="4way_56"/>
<trip id="84" depart="21.957600000000003" fromJunction="3way_2" toJunction="3way_78"/>
<trip id="85" depart="22.219" fromJunction="3way_76" toJunction="4way_59"/>
<trip id="86" depart="22.480400000000003" fromJunction="4way_25" toJunction="3way_18"/>
<trip id="87" depart="22.7418" fromJunction="3way_3" toJunction="4way_58"/>
<trip id="88" depart="23.003200000000003" fromJunction="4way_57" toJunction="3way_62"/>
<trip id="89" depart="23.2646" fromJunction="3way_75" toJunction="4way_30"/>
<trip id="90" depart="23.526000000000003" fromJunction="4way_57" toJunction="4way_25"/>
<trip id="91" depart="23.7874" fromJunction="4way_39" toJunction="4way_65"/>
<trip id="92" depart="24.048800000000004" fromJunction="3way_36" toJunction="4way_14"/>
<trip id="93" depart="24.310200000000002" fromJunction="3way_77" toJunction="4way_28"/>
<trip id="94" depart="24.571600000000004" fromJunction="4way_34" toJunction="3way_79"/>
<trip id="95" depart="24.833000000000002" fromJunction="4way_29" toJunction="4way_14"/>
<trip id="96" depart="25.0944" fromJunction="3way_74" toJunction="3way_76"/>
<trip id="97" depart="25.355800000000002" fromJunction="4way_55" toJunction="3way_5"/>
<trip id="98" depart="25.6172" fromJunction="4way_49" toJunction="3way_36"/>
<trip id="99" depart="25.878600000000002" fromJunction="3way_71" toJunction="4way_19"/>
<trip id="100" depart="26.14" fromJunction="3way_6" toJunction="3way_2"/>
<trip id="101" depart="26.401400000000002" fromJunction="4way_64" toJunction="4way_40"/>
<trip id="102" depart="26.6628" fromJunction="4way_69" toJunction="4way_65"/>
<trip id="103" depart="26.924200000000003" fromJunction="3way_77" toJunction="4way_70"/>
<trip id="104" depart="27.1856" fromJunction="3way_73" toJunction="4way_31"/>
<trip id="105" depart="27.447000000000003" fromJunction="4way_32" toJunction="3way_2"/>
<trip id="106" depart="27.7084" fromJunction="4way_19" toJunction="3way_36"/>
<trip id="107" depart="27.969800000000003" fromJunction="4way_15" toJunction="4way_39"/>
<trip id="108" depart="28.2312" fromJunction="4way_51" toJunction="4way_66"/>
<trip id="109" depart="28.492600000000003" fromJunction="4way_59" toJunction="3way_63"/>
<trip id="110" depart="28.754" fromJunction="4way_43" toJunction="3way_79"/>
<trip id="111" depart="29.015400000000003" fromJunction="3way_77" toJunction="4way_40"/>
<trip id="112" depart="29.2768" fromJunction="4way_14" toJunction="4way_34"/>
<trip id="113" depart="29.538200000000003" fromJunction="3way_77" toJunction="3way_74"/>
<trip id="114" depart="29.7996" fromJunction="3way_2" toJunction="4way_47"/>
<trip id="115" depart="30.061000000000003" fromJunction="4way_46" toJunction="3way_78"/>
<trip id="116" depart="30.322400000000002" fromJunction="4way_11" toJunction="4way_10"/>
<trip id="117" depart="30.583800000000004" fromJunction="4way_39" toJunction="3way_63"/>
<trip id="118" depart="30.845200000000002" fromJunction="3way_35" toJunction="4way_42"/>
<trip id="119" depart="31.106600000000004" fromJunction="3way_44" toJunction="4way_47"/>
<trip id="120" depart="31.368000000000002" fromJunction="4way_28" toJunction="4way_67"/>
<trip id="121" depart="31.629400000000004" fromJunction="3way_79" toJunction="4way_21"/>
<trip id="122" depart="31.890800000000002" fromJunction="4way_29" toJunction="3way_53"/>
<trip id="123" depart="32.1522" fromJunction="4way_34" toJunction="3way_9"/>
<trip id="124" depart="32.4136" fromJunction="4way_23" toJunction="4way_32"/>
<trip id="125" depart="32.675000000000004" fromJunction="3way_7" toJunction="4way_69"/>
<trip id="126" depart="32.936400000000006" fromJunction="4way_39" toJunction="4way_12"/>
<trip id="127" depart="33.1978" fromJunction="3way_54" toJunction="4way_52"/>
<trip id="128" depart="33.4592" fromJunction="3way_17" toJunction="3way_75"/>
<trip id="129" depart="33.720600000000005" fromJunction="4way_25" toJunction="3way_2"/>
<trip id="130" depart="33.982" fromJunction="4way_50" toJunction="4way_31"/>
<trip id="131" depart="34.2434" fromJunction="4way_39" toJunction="3way_63"/>
<trip id="132" depart="34.5048" fromJunction="4way_29" toJunction="3way_5"/>
<trip id="133" depart="34.766200000000005" fromJunction="4way_51" toJunction="4way_61"/>
<trip id="134" depart="35.0276" fromJunction="4way_52" toJunction="3way_18"/>
<trip id="135" depart="35.289" fromJunction="4way_43" toJunction="3way_76"/>
<trip id="136" depart="35.5504" fromJunction="4way_59" toJunction="4way_34"/>
<trip id="137" depart="35.811800000000005" fromJunction="4way_51" toJunction="4way_66"/>
<trip id="138" depart="36.0732" fromJunction="4way_33" toJunction="3way_54"/>
<trip id="139" depart="36.3346" fromJunction="3way_2" toJunction="4way_57"/>
<trip id="140" depart="36.596000000000004" fromJunction="3way_53" toJunction="3way_18"/>
<trip id="141" depart="36.857400000000005" fromJunction="4way_20" toJunction="4way_61"/>
<trip id="142" depart="37.1188" fromJunction="4way_13" toJunction="4way_38"/>
<trip id="143" depart="37.3802" fromJunction="3way_44" toJunction="4way_10"/>
<trip id="144" depart="37.641600000000004" fromJunction="3way_79" toJunction="4way_15"/>
<trip id="145" depart="37.903000000000006" fromJunction="3way_76" toJunction="4way_47"/>
<trip id="146" depart="38.1644" fromJunction="4way_42" toJunction="3way_17"/>
<trip id="147" depart="38.4258" fromJunction="4way_43" toJunction="4way_52"/>
<trip id="148" depart="38.687200000000004" fromJunction="4way_41" toJunction="4way_69"/>
<trip id="149" depart="38.948600000000006" fromJunction="3way_7" toJunction="3way_27"/>
<trip id="150" depart="39.21" fromJunction="3way_76" toJunction="4way_37"/>
<trip id="151" depart="39.4714" fromJunction="3way_5" toJunction="3way_44"/>
<trip id="152" depart="39.732800000000005" fromJunction="3way_1" toJunction="4way_67"/>
<trip id="153" depart="39.994200000000006" fromJunction="3way_53" toJunction="4way_41"/>
<trip id="154" depart="40.2556" fromJunction="3way_75" toJunction="4way_31"/>
<trip id="155" depart="40.517" fromJunction="4way_12" toJunction="4way_46"/>
<trip id="156" depart="40.778400000000005" fromJunction="4way_67" toJunction="4way_42"/>
<trip id="157" depart="41.03980000000001" fromJunction="3way_44" toJunction="3way_73"/>
<trip id="158" depart="41.3012" fromJunction="3way_45" toJunction="3way_5"/>
<trip id="159" depart="41.5626" fromJunction="4way_11" toJunction="3way_73"/>
<trip id="160" depart="41.824000000000005" fromJunction="4way_49" toJunction="4way_40"/>
<trip id="161" depart="42.0854" fromJunction="4way_19" toJunction="3way_63"/>
<trip id="162" depart="42.3468" fromJunction="4way_50" toJunction="3way_71"/>
<trip id="163" depart="42.608200000000004" fromJunction="4way_49" toJunction="3way_5"/>
<trip id="164" depart="42.869600000000005" fromJunction="4way_10" toJunction="3way_74"/>
<trip id="165" depart="43.131" fromJunction="3way_63" toJunction="4way_39"/>
<trip id="166" depart="43.3924" fromJunction="3way_78" toJunction="4way_10"/>
<trip id="167" depart="43.653800000000004" fromJunction="3way_4" toJunction="4way_11"/>
<trip id="168" depart="43.915200000000006" fromJunction="3way_6" toJunction="4way_59"/>
<trip id="169" depart="44.1766" fromJunction="3way_45" toJunction="4way_47"/>
<trip id="170" depart="44.438" fromJunction="4way_43" toJunction="4way_30"/>
<trip id="171" depart="44.699400000000004" fromJunction="3way_3" toJunction="4way_13"/>
<trip id="172" depart="44.960800000000006" fromJunction="4way_47" toJunction="4way_55"/>
<trip id="173" depart="45.2222" fromJunction="4way_40" toJunction="4way_65"/>
<trip id="174" depart="45.4836" fromJunction="3way_35" toJunction="3way_63"/>
<trip id="175" depart="45.745000000000005" fromJunction="4way_43" toJunction="4way_28"/>
<trip id="176" depart="46.006400000000006" fromJunction="4way_69" toJunction="3way_79"/>
<trip id="177" depart="46.2678" fromJunction="4way_11" toJunction="4way_65"/>
<trip id="178" depart="46.5292" fromJunction="4way_11" toJunction="4way_51"/>
<trip id="179" depart="46.790600000000005" fromJunction="4way_28" toJunction="4way_67"/>
<trip id="180" depart="47.05200000000001" fromJunction="4way_49" toJunction="4way_69"/>
<trip id="181" depart="47.3134" fromJunction="3way_27" toJunction="4way_49"/>
<trip id="182" depart="47.5748" fromJunction="4way_66" toJunction="4way_32"/>
<trip id="183" depart="47.836200000000005" fromJunction="3way_62" toJunction="3way_75"/>
<trip id="184" depart="48.09760000000001" fromJunction="4way_43" toJunction="4way_59"/>
<trip id="185" depart="48.359" fromJunction="4way_39" toJunction="4way_11"/>
<trip id="186" depart="48.620400000000004" fromJunction="4way_11" toJunction="4way_42"/>
<trip id="187" depart="48.881800000000005" fromJunction="4way_30" toJunction="4way_43"/>
<trip id="188" depart="49.14320000000001" fromJunction="4way_69" toJunction="4way_15"/>
<trip id="189" depart="49.4046" fromJunction="3way_62" toJunction="4way_68"/>
<trip id="190" depart="49.666000000000004" fromJunction="4way_28" toJunction="4way_66"/>
<trip id="191" depart="49.927400000000006" fromJunction="4way_46" toJunction="3way_5"/>
<trip id="192" depart="50.1888" fromJunction="4way_33" toJunction="3way_74"/>
<trip id="193" depart="50.4502" fromJunction="4way_43" toJunction="3way_3"/>
<trip id="194" depart="50.711600000000004" fromJunction="3way_79" toJunction="3way_2"/>
<trip id="195" depart="50.973000000000006" fromJunction="4way_25" toJunction="4way_28"/>
<trip id="196" depart="51.2344" fromJunction="4way_34" toJunction="3way_17"/>
<trip id="197" depart="51.4958" fromJunction="4way_64" toJunction="4way_42"/>
<trip id="198" depart="51.757200000000005" fromJunction="3way_76" toJunction="3way_27"/>
<trip id="199" depart="52.018600000000006" fromJunction="3way_3" toJunction="4way_57"/>
<trip id="200" depart="52.28" fromJunction="4way_55" toJunction="3way_2"/>
<trip id="201" depart="52.5414" fromJunction="3way_74" toJunction="3way_6"/>
<trip id="202" depart="52.802800000000005" fromJunction="3way_74" toJunction="3way_76"/>
<trip id="203" depart="53.06420000000001" fromJunction="3way_1" toJunction="3way_44"/>
<trip id="204" depart="53.3256" fromJunction="4way_57" toJunction="3way_26"/>
<trip id="205" depart="53.587" fromJunction="4way_70" toJunction="4way_61"/>
<trip id="206" depart="53.848400000000005" fromJunction="3way_62" toJunction="4way_37"/>
<trip id="207" depart="54.10980000000001" fromJunction="4way_29" toJunction="4way_13"/>
<trip id="208" depart="54.3712" fromJunction="3way_6" toJunction="4way_70"/>
<trip id="209" depart="54.632600000000004" fromJunction="3way_54" toJunction="4way_50"/>
<trip id="210" depart="54.894000000000005" fromJunction="4way_31" toJunction="3way_75"/>
<trip id="211" depart="55.15540000000001" fromJunction="4way_31" toJunction="3way_75"/>
<trip id="212" depart="55.4168" fromJunction="4way_46" toJunction="4way_47"/>
<trip id="213" depart="55.678200000000004" fromJunction="3way_54" toJunction="4way_12"/>
<trip id="214" depart="55.939600000000006" fromJunction="4way_37" toJunction="4way_58"/>
<trip id="215" depart="56.20100000000001" fromJunction="4way_15" toJunction="3way_9"/>
<trip id="216" depart="56.4624" fromJunction="3way_4" toJunction="4way_25"/>
<trip id="217" depart="56.723800000000004" fromJunction="3way_18" toJunction="3way_76"/>
<trip id="218" depart="56.985200000000006" fromJunction="4way_61" toJunction="4way_68"/>
<trip id="219" depart="57.24660000000001" fromJunction="4way_69" toJunction="4way_52"/>
<trip id="220" depart="57.508" fromJunction="4way_70" toJunction="3way_54"/>
<trip id="221" depart="57.769400000000005" fromJunction="3way_26" toJunction="3way_74"/>
<trip id="222" depart="58.030800000000006" fromJunction="3way_76" toJunction="4way_43"/>
<trip id="223" depart="58.29220000000001" fromJunction="3way_5" toJunction="4way_49"/>
<trip id="224" depart="58.5536" fromJunction="4way_51" toJunction="4way_14"/>
<trip id="225" depart="58.815000000000005" fromJunction="4way_19" toJunction="3way_73"/>
<trip id="226" depart="59.07640000000001" fromJunction="4way_23" toJunction="4way_10"/>
<trip id="227" depart="59.3378" fromJunction="3way_71" toJunction="3way_75"/>
<trip id="228" depart="59.5992" fromJunction="3way_45" toJunction="4way_64"/>
<trip id="229" depart="59.860600000000005" fromJunction="3way_75" toJunction="4way_24"/>
<trip id="230" depart="60.12200000000001" fromJunction="4way_34" toJunction="4way_38"/>
<trip id="231" depart="60.3834" fromJunction="4way_42" toJunction="4way_66"/>
<trip id="232" depart="60.644800000000004" fromJunction="4way_23" toJunction="4way_34"/>
<trip id="233" depart="60.906200000000005" fromJunction="4way_52" toJunction="4way_49"/>
<trip id="234" depart="61.16760000000001" fromJunction="4way_64" toJunction="4way_70"/>
<trip id="235" depart="61.429" fromJunction="3way_54" toJunction="3way_6"/>
<trip id="236" depart="61.690400000000004" fromJunction="4way_46" toJunction="3way_53"/>
<trip id="237" depart="61.951800000000006" fromJunction="4way_48" toJunction="3way_44"/>
<trip id="238" depart="62.21320000000001" fromJunction="4way_60" toJunction="4way_19"/>
<trip id="239" depart="62.4746" fromJunction="4way_12" toJunction="4way_52"/>
<trip id="240" depart="62.736000000000004" fromJunction="4way_39" toJunction="3way_63"/>
<trip id="241" depart="62.997400000000006" fromJunction="4way_37" toJunction="4way_69"/>
<trip id="242" depart="63.25880000000001" fromJunction="3way_73" toJunction="4way_12"/>
<trip id="243" depart="63.5202" fromJunction="4way_28" toJunction="4way_11"/>
<trip id="244" depart="63.781600000000005" fromJunction="4way_38" toJunction="3way_74"/>
<trip id="245" depart="64.043" fromJunction="4way_10" toJunction="3way_45"/>
<trip id="246" depart="64.3044" fromJunction="4way_23" toJunction="4way_56"/>
<trip id="247" depart="64.56580000000001" fromJunction="4way_25" toJunction="3way_27"/>
<trip id="248" depart="64.8272" fromJunction="3way_4" toJunction="4way_42"/>
<trip id="249" depart="65.0886" fromJunction="4way_64" toJunction="3way_74"/>
<trip id="250" depart="65.35000000000001" fromJunction="3way_18" toJunction="3way_26"/>
<trip id="251" depart="65.6114" fromJunction="4way_40" toJunction="4way_14"/>
<trip id="252" depart="65.87280000000001" fromJunction="4way_58" toJunction="4way_57"/>
<trip id="253" depart="66.1342" fromJunction="3way_18" toJunction="3way_78"/>
<trip id="254" depart="66.3956" fromJunction="4way_51" toJunction="4way_40"/>
<trip id="255" depart="66.65700000000001" fromJunction="3way_63" toJunction="4way_65"/>
<trip id="256" depart="66.9184" fromJunction="4way_58" toJunction="3way_3"/>
<trip id="257" depart="67.1798" fromJunction="4way_10" toJunction="3way_1"/>
<trip id="258" depart="67.44120000000001" fromJunction="4way_25" toJunction="4way_56"/>
<trip id="259" depart="67.7026" fromJunction="4way_37" toJunction="3way_7"/>
<trip id="260" depart="67.964" fromJunction="3way_18" toJunction="3way_2"/>
<trip id="261" depart="68.22540000000001" fromJunction="3way_63" toJunction="4way_57"/>
<trip id="262" depart="68.4868" fromJunction="3way_26" toJunction="3way_77"/>
<trip id="263" depart="68.74820000000001" fromJunction="4way_49" toJunction="4way_30"/>
<trip id="264" depart="69.0096" fromJunction="4way_43" toJunction="4way_31"/>
<trip id="265" depart="69.271" fromJunction="4way_13" toJunction="3way_1"/>
<trip id="266" depart="69.53240000000001" fromJunction="4way_39" toJunction="4way_48"/>
<trip id="267" depart="69.7938" fromJunction="3way_2" toJunction="4way_52"/>
<trip id="268" depart="70.0552" fromJunction="4way_68" toJunction="4way_49"/>
<trip id="269" depart="70.31660000000001" fromJunction="3way_27" toJunction="4way_47"/>
<trip id="270" depart="70.578" fromJunction="3way_17" toJunction="4way_50"/>
<trip id="271" depart="70.83940000000001" fromJunction="4way_56" toJunction="4way_64"/>
<trip id="272" depart="71.1008" fromJunction="3way_7" toJunction="4way_49"/>
<trip id="273" depart="71.3622" fromJunction="4way_37" toJunction="3way_76"/>
<trip id="274" depart="71.62360000000001" fromJunction="4way_60" toJunction="4way_57"/>
<trip id="275" depart="71.885" fromJunction="3way_44" toJunction="4way_57"/>
<trip id="276" depart="72.1464" fromJunction="4way_51" toJunction="4way_61"/>
<trip id="277" depart="72.40780000000001" fromJunction="4way_25" toJunction="4way_38"/>
<trip id="278" depart="72.6692" fromJunction="4way_25" toJunction="4way_65"/>
<trip id="279" depart="72.93060000000001" fromJunction="4way_52" toJunction="4way_15"/>
<trip id="280" depart="73.19200000000001" fromJunction="3way_3" toJunction="4way_16"/>
<trip id="281" depart="73.4534" fromJunction="4way_19" toJunction="3way_71"/>
<trip id="282" depart="73.71480000000001" fromJunction="3way_45" toJunction="4way_43"/>
<trip id="283" depart="73.9762" fromJunction="4way_60" toJunction="3way_62"/>
<trip id="284" depart="74.2376" fromJunction="4way_69" toJunction="4way_64"/>
<trip id="285" depart="74.49900000000001" fromJunction="4way_22" toJunction="3way_62"/>
<trip id="286" depart="74.7604" fromJunction="3way_6" toJunction="4way_55"/>
<trip id="287" depart="75.02180000000001" fromJunction="3way_74" toJunction="4way_49"/>
<trip id="288" depart="75.28320000000001" fromJunction="3way_5" toJunction="3way_4"/>
<trip id="289" depart="75.5446" fromJunction="4way_69" toJunction="3way_5"/>
<trip id="290" depart="75.80600000000001" fromJunction="4way_69" toJunction="4way_14"/>
<trip id="291" depart="76.0674" fromJunction="4way_56" toJunction="4way_31"/>
<trip id="292" depart="76.3288" fromJunction="4way_70" toJunction="3way_45"/>
<trip id="293" depart="76.59020000000001" fromJunction="4way_20" toJunction="3way_9"/>
<trip id="294" depart="76.8516" fromJunction="4way_61" toJunction="4way_19"/>
<trip id="295" depart="77.113" fromJunction="3way_27" toJunction="3way_71"/>
<trip id="296" depart="77.37440000000001" fromJunction="3way_5" toJunction="4way_40"/>
<trip id="297" depart="77.6358" fromJunction="4way_20" toJunction="4way_48"/>
<trip id="298" depart="77.89720000000001" fromJunction="3way_75" toJunction="3way_63"/>
<trip id="299" depart="78.1586" fromJunction="4way_10" toJunction="4way_47"/>
<trip id="300" depart="78.42" fromJunction="3way_27" toJunction="4way_11"/>
<trip id="301" depart="78.68140000000001" fromJunction="3way_44" toJunction="4way_52"/>
<trip id="302" depart="78.9428" fromJunction="3way_18" toJunction="3way_17"/>
<trip id="303" depart="79.2042" fromJunction="4way_22" toJunction="4way_39"/>
<trip id="304" depart="79.46560000000001" fromJunction="4way_70" toJunction="4way_28"/>
<trip id="305" depart="79.727" fromJunction="4way_67" toJunction="3way_9"/>
<trip id="306" depart="79.98840000000001" fromJunction="4way_68" toJunction="4way_13"/>
<trip id="307" depart="80.24980000000001" fromJunction="4way_60" toJunction="4way_61"/>
<trip id="308" depart="80.5112" fromJunction="4way_49" toJunction="4way_32"/>
<trip id="309" depart="80.77260000000001" fromJunction="3way_53" toJunction="3way_27"/>
<trip id="310" depart="81.034" fromJunction="3way_75" toJunction="3way_5"/>
<trip id="311" depart="81.2954" fromJunction="4way_56" toJunction="4way_55"/>
<trip id="312" depart="81.55680000000001" fromJunction="4way_43" toJunction="4way_41"/>
<trip id="313" depart="81.8182" fromJunction="3way_26" toJunction="3way_35"/>
<trip id="314" depart="82.07960000000001" fromJunction="4way_23" toJunction="4way_39"/>
<trip id="315" depart="82.34100000000001" fromJunction="4way_34" toJunction="4way_33"/>
<trip id="316" depart="82.6024" fromJunction="4way_28" toJunction="4way_61"/>
<trip id="317" depart="82.86380000000001" fromJunction="3way_53" toJunction="4way_19"/>
<trip id="318" depart="83.1252" fromJunction="4way_22" toJunction="4way_40"/>
<trip id="319" depart="83.3866" fromJunction="3way_17" toJunction="4way_42"/>
<trip id="320" depart="83.64800000000001" fromJunction="4way_30" toJunction="4way_38"/>
<trip id="321" depart="83.9094" fromJunction="3way_71" toJunction="3way_75"/>
<trip id="322" depart="84.1708" fromJunction="3way_5" toJunction="4way_42"/>
<trip id="323" depart="84.43220000000001" fromJunction="3way_26" toJunction="4way_20"/>
<trip id="324" depart="84.6936" fromJunction="4way_61" toJunction="4way_11"/>
<trip id="325" depart="84.95500000000001" fromJunction="4way_33" toJunction="4way_46"/>
<trip id="326" depart="85.21640000000001" fromJunction="3way_73" toJunction="3way_35"/>
<trip id="327" depart="85.4778" fromJunction="4way_28" toJunction="4way_37"/>
<trip id="328" depart="85.73920000000001" fromJunction="3way_18" toJunction="4way_31"/>
<trip id="329" depart="86.0006" fromJunction="4way_13" toJunction="4way_58"/>
<trip id="330" depart="86.262" fromJunction="4way_55" toJunction="4way_28"/>
<trip id="331" depart="86.52340000000001" fromJunction="3way_6" toJunction="4way_57"/>
<trip id="332" depart="86.7848" fromJunction="4way_22" toJunction="4way_15"/>
<trip id="333" depart="87.04620000000001" fromJunction="4way_65" toJunction="4way_67"/>
<trip id="334" depart="87.30760000000001" fromJunction="4way_37" toJunction="3way_26"/>
<trip id="335" depart="87.569" fromJunction="3way_36" toJunction="4way_37"/>
<trip id="336" depart="87.83040000000001" fromJunction="4way_14" toJunction="3way_3"/>
<trip id="337" depart="88.0918" fromJunction="4way_48" toJunction="3way_26"/>
<trip id="338" depart="88.3532" fromJunction="4way_66" toJunction="4way_58"/>
<trip id="339" depart="88.61460000000001" fromJunction="3way_17" toJunction="4way_43"/>
<trip id="340" depart="88.876" fromJunction="3way_3" toJunction="4way_42"/>
<trip id="341" depart="89.13740000000001" fromJunction="4way_37" toJunction="4way_65"/>
<trip id="342" depart="89.39880000000001" fromJunction="4way_10" toJunction="4way_56"/>
<trip id="343" depart="89.6602" fromJunction="3way_2" toJunction="3way_79"/>
<trip id="344" depart="89.92160000000001" fromJunction="4way_24" toJunction="4way_47"/>
<trip id="345" depart="90.183" fromJunction="3way_76" toJunction="4way_10"/>
<trip id="346" depart="90.4444" fromJunction="3way_17" toJunction="3way_76"/>
<trip id="347" depart="90.70580000000001" fromJunction="3way_6" toJunction="3way_73"/>
<trip id="348" depart="90.9672" fromJunction="4way_33" toJunction="3way_6"/>
<trip id="349" depart="91.22860000000001" fromJunction="4way_21" toJunction="3way_62"/>
<trip id="350" depart="91.49000000000001" fromJunction="4way_11" toJunction="4way_41"/>
<trip id="351" depart="91.7514" fromJunction="3way_78" toJunction="3way_53"/>
<trip id="352" depart="92.01280000000001" fromJunction="4way_56" toJunction="4way_55"/>
<trip id="353" depart="92.27420000000001" fromJunction="4way_50" toJunction="3way_18"/>
<trip id="354" depart="92.5356" fromJunction="4way_25" toJunction="4way_23"/>
<trip id="355" depart="92.79700000000001" fromJunction="4way_60" toJunction="3way_3"/>
<trip id="356" depart="93.0584" fromJunction="4way_51" toJunction="4way_28"/>
<trip id="357" depart="93.3198" fromJunction="4way_70" toJunction="4way_49"/>
<trip id="358" depart="93.58120000000001" fromJunction="4way_10" toJunction="4way_32"/>
<trip id="359" depart="93.8426" fromJunction="4way_10" toJunction="4way_38"/>
<trip id="360" depart="94.10400000000001" fromJunction="3way_73" toJunction="4way_10"/>