<routes xmlns:xsi="http://www.w3.org/2001/XMLSchema-instance" xsi:noNamespaceSchemaLocation="http://sumo.dlr.de/xsd/routes_file.xsd">
<trip id="0" depart="0.0" fromJunction="4way_54" toJunction="4way_81"/>
<trip id="1" depart="0.1568" fromJunction="4way_66" toJunction="4way_67"/>
<trip id="2" depart="0.3136" fromJunction="4way_202" toJunction="4way_49"/>
<trip id="3" depart="0.4704" fromJunction="4way_57" toJunction="4way_94"/>
<trip id="4" depart="0.6272" fromJunction="4way_108" toJunction="4way_88"/>
<trip id="5" depart="0.784" fromJunction="4way_200" toJunction="4way_100"/>
<trip id="6" depart="0.9408" fromJunction="4way_162" toJunction="4way_141"/>
<trip id="7" depart="1.0976" fromJunction="3way_119" toJunction="3way_59"/>
<trip id="8" depart="1.2544" fromJunction="4way_56" toJunction="3way_5"/>
<trip id="9" depart="1.4112" fromJunction="4way_176" toJunction="4way_55"/>
<trip id="10" depart="1.568" fromJunction="4way_130" toJunction="4way_148"/>
<trip id="11" depart="1.7247999999999999" fromJunction="4way_70" toJunction="4way_169"/>
<trip id="12" depart="1.8816" fromJunction="4way_187" toJunction="3way_223"/>
<trip id="13" depart="2.0383999999999998" fromJunction="4way_28" toJunction="3way_218"/>
<trip id="14" depart="2.1952" fromJunction="4way_19" toJunction="4way_185"/>
<trip id="15" depart="2.352" fromJunction="4way_55" toJunction="4way_106"/>
<trip id="16" depart="2.5088" fromJunction="4way_141" toJunction="4way_154"/>
<trip id="17" depart="2.6656" fromJunction="4way_112" toJunction="3way_5"/>
<trip id="18" depart="2.8224" fromJunction="4way_112" toJunction="4way_97"/>
<trip id="19" depart="2.9792" fromJunction="4way_128" toJunction="4way_28"/>
<trip id="20" depart="3.136" fromJunction="4way_94" toJunction="4way_33"/>
<trip id="21" depart="3.2927999999999997" fromJunction="3way_29" toJunction="4way_188"/>
<trip id="22" depart="3.4495999999999998" fromJunction="4way_98" toJunction="4way_83"/>
<trip id="23" depart="3.6064" fromJunction="3way_221" toJunction="3way_90"/>
<trip id="24" depart="3.7632" fromJunction="4way_48" toJunction="4way_77"/>
<trip id="25" depart="3.92" fromJunction="4way_94" toJunction="4way_156"/>
<trip id="26" depart="4.0767999999999995" fromJunction="3way_164" toJunction="4way_178"/>
<trip id="27" depart="4.2336" fromJunction="3way_214" toJunction="3way_90"/>
<trip id="28" depart="4.3904" fromJunction="4way_61" toJunction="4way_38"/>
<trip id="29" depart="4.5472" fromJunction="4way_46" toJunction="4way_199"/>
<trip id="30" depart="4.704" fromJunction="3way_194" toJunction="3way_214"/>
<trip id="31" depart="4.8608" fromJunction="3way_219" toJunction="4way_53"/>
<trip id="32" depart="5.0176" fromJunction="4way_63" toJunction="3way_135"/>
<trip id="33" depart="5.1743999999999994" fromJunction="3way_149" toJunction="4way_205"/>
<trip id="34" depart="5.3312" fromJunction="3way_149" toJunction="4way_71"/>
<trip id="35" depart="5.4879999999999995" fromJunction="4way_199" toJunction="4way_133"/>
<trip id="36" depart="5.6448" fromJunction="4way_67" toJunction="4way_133"/>
<trip id="37" depart="5.8016" fromJunction="3way_9" toJunction="4way_129"/>
<trip id="38" depart="5.9584" fromJunction="3way_223" toJunction="4way_166"/>
<trip id="39" depart="6.1152" fromJunction="3way_223" toJunction="4way_17"/>
<trip id="40" depart="6.272" fromJunction="4way_19" toJunction="4way_92"/>
<trip id="41" depart="6.4288" fromJunction="4way_173" toJunction="3way_44"/>
<trip id="42" depart="6.5855999999999995" fromJunction="4way_106" toJunction="4way_141"/>
<trip id="43" depart="6.7424" fromJunction="3way_134" toJunction="4way_185"/>
<trip id="44" depart="6.8991999999999996" fromJunction="4way_177" toJunction="4way_171"/>
<trip id="45" depart="7.056" fromJunction="4way_83" toJunction="4way_92"/>
<trip id="46" depart="7.2128" fromJunction="4way_54" toJunction="3way_220"/>
<trip id="47" depart="7.3696" fromJunction="3way_180" toJunction="4way_181"/>
<trip id="48" depart="7.5264" fromJunction="3way_5" toJunction="4way_201"/>
<trip id="49" depart="7.683199999999999" fromJunction="3way_2" toJunction="4way_41"/>
<trip id="50" depart="7.84" fromJunction="4way_121" toJunction="4way_113"/>
<trip id="51" depart="7.9967999999999995" fromJunction="4way_88" toJunction="4way_114"/>
<trip id="52" depart="8.153599999999999" fromJunction="4way_171" toJunction="4way_46"/>
<trip id="53" depart="8.3104" fromJunction="4way_156" toJunction="4way_22"/>
<trip id="54" depart="8.4672" fromJunction="4way_58" toJunction="3way_45"/>
<trip id="55" depart="8.624" fromJunction="4way_101" toJunction="4way_124"/>
<trip id="56" depart="8.7808" fromJunction="4way_17" toJunction="4way_188"/>
<trip id="57" depart="8.9376" fromJunction="4way_153" toJunction="4way_175"/>
<trip id="58" depart="9.0944" fromJunction="4way_186" toJunction="4way_206"/>
<trip id="59" depart="9.251199999999999" fromJunction="4way_173" toJunction="4way_206"/>
<trip id="60" depart="9.408" fromJunction="4way_110" toJunction="4way_84"/>
<trip id="61" depart="9.5648" fromJunction="4way_202" toJunction="4way_73"/>
<trip id="62" depart="9.7216" fromJunction="4way_82" toJunction="4way_49"/>
<trip id="63" depart="9.8784" fromJunction="4way_32" toJunction="3way_5"/>
<trip id="64" depart="10.0352" fromJunction="4way_196" toJunction="4way_53"/>
<trip id="65" depart="10.192" fromJunction="4way_64" toJunction="4way_112"/>
<trip id="66" depart="10.348799999999999" fromJunction="4way_17" toJunction="3way_220"/>
<trip id="67" depart="10.5056" fromJunction="4way_22" toJunction="4way_141"/>
<trip id="68" depart="10.6624" fromJunction="4way_38" toJunction="4way_156"/>
<trip id="69" depart="10.8192" fromJunction="4way_79" toJunction="4way_38"/>
<trip id="70" depart="10.975999999999999" fromJunction="4way_63" toJunction="4way_72"/>
<trip id="71" depart="11.1328" fromJunction="4way_57" toJunction="4way_94"/>
<trip id="72" depart="11.2896" fromJunction="4way_203" toJunction="4way_160"/>
<trip id="73" depart="11.446399999999999" fromJunction="4way_147" toJunction="3way_164"/>
<trip id="74" depart="11.6032" fromJunction="4way_208" toJunction="4way_39"/>
<trip id="75" depart="11.76" fromJunction="4way_161" toJunction="3way_216"/>
<trip id="76" depart="11.9168" fromJunction="4way_112" toJunction="3way_214"/>
<trip id="77" depart="12.073599999999999" fromJunction="4way_101" toJunction="3way_222"/>
<trip id="78" depart="12.2304" fromJunction="4way_141" toJunction="4way_160"/>
<trip id="79" depart="12.3872" fromJunction="3way_59" toJunction="4way_183"/>
<trip id="80" depart="12.544" fromJunction="4way_154" toJunction="4way_188"/>
<trip id="81" depart="12.7008" fromJunction="4way_161" toJunction="4way_69"/>
<trip id="82" depart="12.8576" fromJunction="4way_131" toJunction="4way_133"/>
<trip id="83" depart="13.0144" fromJunction="4way_33" toJunction="3way_3"/>
<trip id="84" depart="13.171199999999999" fromJunction="3way_212" toJunction="4way_99"/>
<trip id="85" depart="13.328" fromJunction="3way_13" toJunction="4way_185"/>
<trip id="86" depart="13.4848" fromJunction="3way_5" toJunction="3way_120"/>
<trip id="87" depart="13.6416" fromJunction="3way_45" toJunction="4way_115"/>
<trip id="88" depart="13.798399999999999" fromJunction="4way_177" toJunction="4way_182"/>
<trip id="89" depart="13.9552" fromJunction="3way_8" toJunction="4way_203"/>
<trip id="90" depart="14.112" fromJunction="4way_127" toJunction="3way_213"/>
<trip id="91" depart="14.268799999999999" fromJunction="4way_16" toJunction="4way_171"/>
<trip id="92" depart="14.4256" fromJunction="4way_97" toJunction="4way_192"/>
<trip id="93" depart="14.5824" fromJunction="4way_22" toJunction="4way_36"/>
<trip id="94" depart="14.7392" fromJunction="4way_62" toJunction="4way_99"/>
<trip id="95" depart="14.895999999999999" fromJunction="3way_90" toJunction="4way_168"/>
<trip id="96" depart="15.0528" fromJunction="4way_28" toJunction="3way_165"/>
<trip id="97" depart="15.2096" fromJunction="4way_80" toJunction="4way_129"/>
<trip id="98" depart="15.366399999999999" fromJunction="4way_76" toJunction="3way_30"/>
<trip id="99" depart="15.5232" fromJunction="4way_94" toJunction="3way_13"/>
<trip id="100" depart="15.68" fromJunction="4way_173" toJunction="4way_62"/>
<trip id="101" depart="15.8368" fromJunction="3way_195" toJunction="4way_93"/>
<trip id="102" depart="15.993599999999999" fromJunction="3way_44" toJunction="3way_6"/>
<trip id="103" depart="16.1504" fromJunction="4way_154" toJunction="4way_128"/>
<trip id="104" depart="16.307199999999998" fromJunction="4way_72" toJunction="4way_36"/>
<trip id="105" depart="16.464" fromJunction="3way_75" toJunction="4way_178"/>
<trip id="106" depart="16.6208" fromJunction="4way_106" toJunction="4way_68"/>
<trip id="107" depart="16.7776" fromJunction="4way_189" toJunction="3way_5"/>
<trip id="108" depart="16.9344" fromJunction="4way_108" toJunction="4way_92"/>
<trip id="109" depart="17.0912" fromJunction="4way_41" toJunction="4way_22"/>
<trip id="110" depart="17.248" fromJunction="4way_176" toJunction="4way_157"/>
<trip id="111" depart="17.404799999999998" fromJunction="4way_130" toJunction="4way_136"/>
<trip id="112" depart="17.5616" fromJunction="4way_58" toJunction="3way_165"/>
<trip id="113" depart="17.7184" fromJunction="3way_75" toJunction="4way_143"/>
<trip id="114" depart="17.8752" fromJunction="4way_99" toJunction="4way_43"/>
<trip id="115" depart="18.032" fromJunction="3way_75" toJunction="4way_76"/>
<trip id="116" depart="18.1888" fromJunction="3way_6" toJunction="4way_170"/>
<trip id="117" depart="18.3456" fromJunction="4way_49" toJunction="3way_105"/>
<trip id="118" depart="18.502399999999998" fromJunction="4way_184" toJunction="4way_78"/>
<trip id="119" depart="18.6592" fromJunction="4way_201" toJunction="4way_151"/>
<trip id="120" depart="18.816" fromJunction="3way_209" toJunction="4way_146"/>
<trip id="121" depart="18.9728" fromJunction="3way_220" toJunction="4way_170"/>
<trip id="122" depart="19.1296" fromJunction="4way_153" toJunction="4way_54"/>
<trip id="123" depart="19.2864" fromJunction="3way_180" toJunction="4way_126"/>
<trip id="124" depart="19.4432" fromJunction="4way_65" toJunction="3way_217"/>
<trip id="125" depart="19.599999999999998" fromJunction="4way_207" toJunction="4way_18"/>
<trip id="126" depart="19.7568" fromJunction="4way_159" toJunction="4way_25"/>
<trip id="127" depart="19.9136" fromJunction="3way_104" toJunction="4way_87"/>
<trip id="128" depart="20.0704" fromJunction="4way_201" toJunction="4way_96"/>
<trip id="129" depart="20.2272" fromJunction="4way_196" toJunction="4way_88"/>
<trip id="130" depart="20.384" fromJunction="3way_164" toJunction="4way_31"/>
<trip id="131" depart="20.5408" fromJunction="4way_177" toJunction="3way_4"/>
<trip id="132" depart="20.697599999999998" fromJunction="4way_85" toJunction="4way_98"/>
<trip id="133" depart="20.8544" fromJunction="4way_201" toJunction="4way_166"/>
<trip id="134" depart="21.0112" fromJunction="4way_65" toJunction="3way_44"/>
<trip id="135" depart="21.168" fromJunction="4way_191" toJunction="4way_148"/>
<trip id="136" depart="21.3248" fromJunction="4way_88" toJunction="4way_152"/>
<trip id="137" depart="21.4816" fromJunction="4way_43" toJunction="3way_15"/>
<trip id="138" depart="21.6384" fromJunction="4way_130" toJunction="4way_28"/>
<trip id="139" depart="21.795199999999998" fromJunction="4way_191" toJunction="4way_157"/>
<trip id="140" depart="21.951999999999998" fromJunction="4way_101" toJunction="4way_196"/>
<trip id="141" depart="22.1088" fromJunction="3way_3" toJunction="4way_112"/>
<trip id="142" depart="22.2656" fromJunction="3way_217" toJunction="4way_182"/>
<trip id="143" depart="22.4224" fromJunction="4way_35" toJunction="4way_148"/>
<trip id="144" depart="22.5792" fromJunction="4way_187" toJunction="4way_95"/>
<trip id="145" depart="22.736" fromJunction="3way_219" toJunction="4way_63"/>
<trip id="146" depart="22.892799999999998" fromJunction="3way_165" toJunction="4way_205"/>
<trip id="147" depart="23.049599999999998" fromJunction="3way_45" toJunction="4way_155"/>
<trip id="148" depart="23.2064" fromJunction="4way_146" toJunction="3way_149"/>
<trip id="149" depart="23.3632" fromJunction="4way_88" toJunction="4way_133"/>
<trip id="150" depart="23.52" fromJunction="4way_55" toJunction="4way_102"/>
<trip id="151" depart="23.6768" fromJunction="3way_89" toJunction="4way_137"/>
<trip id="152" depart="23.8336" fromJunction="3way_15" toJunction="4way_198"/>
<trip id="153" depart="23.990399999999998" fromJunction="3way_12" toJunction="3way_220"/>
<trip id="154" depart="24.147199999999998" fromJunction="3way_3" toJunction="4way_84"/>
<trip id="155" depart="24.304" fromJunction="3way_217" toJunction="4way_40"/>
<trip id="156" depart="24.4608" fromJunction="3way_119" toJunction="3way_89"/>
<trip id="157" depart="24.6176" fromJunction="4way_46" toJunction="4way_98"/>
<trip id="158" depart="24.7744" fromJunction="4way_111" toJunction="4way_34"/>
<trip id="159" depart="24.9312" fromJunction="4way_84" toJunction="4way_146"/>
<trip id="160" depart="25.088" fromJunction="3way_220" toJunction="4way_121"/>
<trip id="161" depart="25.244799999999998" fromJunction="4way_32" toJunction="3way_13"/>
<trip id="162" depart="25.4016" fromJunction="4way_154" toJunction="4way_91"/>
<trip id="163" depart="25.5584" fromJunction="4way_173" toJunction="4way_143"/>
<trip id="164" depart="25.7152" fromJunction="4way_93" toJunction="4way_166"/>
<trip id="165" depart="25.872" fromJunction="4way_100" toJunction="3way_180"/>
<trip id="166" depart="26.0288" fromJunction="4way_188" toJunction="3way_13"/>
<trip id="167" depart="26.1856" fromJunction="4way_55" toJunction="4way_70"/>
<trip id="168" depart="26.342399999999998" fromJunction="4way_78" toJunction="4way_91"/>
<trip id="169" depart="26.4992" fromJunction="4way_136" toJunction="4way_201"/>
<trip id="170" depart="26.656" fromJunction="3way_135" toJunction="4way_63"/>
<trip id="171" depart="26.8128" fromJunction="3way_10" toJunction="4way_169"/>
<trip id="172" depart="26.9696" fromJunction="3way_89" toJunction="4way_130"/>
<trip id="173" depart="27.1264" fromJunction="4way_47" toJunction="4way_170"/>
<trip id="174" depart="27.2832" fromJunction="4way_88" toJunction="4way_171"/>
<trip id="175" depart="27.439999999999998" fromJunction="3way_8" toJunction="4way_202"/>
<trip id="176" depart="27.596799999999998" fromJunction="4way_140" toJunction="4way_79"/>
<trip id="177" depart="27.7536" fromJunction="4way_128" toJunction="4way_36"/>
<trip id="178" depart="27.9104" fromJunction="3way_221" toJunction="4way_151"/>
<trip id="179" depart="28.0672" fromJunction="4way_73" toJunction="4way_138"/>
<trip id="180" depart="28.224" fromJunction="4way_87" toJunction="3way_165"/>
<trip id="181" depart="28.3808" fromJunction="4way_154" toJunction="4way_66"/>
<trip id="182" depart="28.537599999999998" fromJunction="4way_169" toJunction="4way_206"/>
<trip id="183" depart="28.694399999999998" fromJunction="4way_168" toJunction="4way_84"/>
<trip id="184" depart="28.8512" fromJunction="4way_158" toJunction="4way_87"/>
<trip id="185" depart="29.008" fromJunction="4way_122" toJunction="4way_188"/>
<trip id="186" depart="29.1648" fromJunction="4way_172" toJunction="4way_189"/>
<trip id="187" depart="29.3216" fromJunction="3way_214" toJunction="4way_31"/>
<trip id="188" depart="29.4784" fromJunction="4way_73" toJunction="4way_130"/>
<trip id="189" depart="29.635199999999998" fromJunction="4way_22" toJunction="4way_169"/>
<trip id="190" depart="29.791999999999998" fromJunction="4way_169" toJunction="4way_131"/>
<trip id="191" depart="29.9488" fromJunction="4way_171" toJunction="4way_58"/>
<trip id="192" depart="30.1056" fromJunction="4way_102" toJunction="4way_205"/>
<trip id="193" depart="30.2624" fromJunction="3way_214" toJunction="4way_190"/>
<trip id="194" depart="30.4192" fromJunction="4way_168" toJunction="4way_142"/>
<trip id="195" depart="30.576" fromJunction="4way_49" toJunction="3way_29"/>
<trip id="196" depart="30.732799999999997" fromJunction="4way_101" toJunction="4way_91"/>
<trip id="197" depart="30.889599999999998" fromJunction="4way_73" toJunction="3way_8"/>
<trip id="198" depart="31.0464" fromJunction="3way_180" toJunction="3way_4"/>
<trip id="199" depart="31.2032" fromJunction="4way_177" toJunction="4way_168"/>
<trip id="200" depart="31.36" fromJunction="4way_28" toJunction="3way_164"/>
<trip id="201" depart="31.5168" fromJunction="4way_154" toJunction="4way_176"/>
<trip id="202" depart="31.6736" fromJunction="3way_15" toJunction="4way_122"/>
<trip id="203" depart="31.830399999999997" fromJunction="3way_8" toJunction="4way_97"/>
<trip id="204" depart="31.987199999999998" fromJunction="4way_64" toJunction="3way_4"/>
<trip id="205" depart="32.144" fromJunction="4way_61" toJunction="3way_59"/>
<trip id="206" depart="32.3008" fromJunction="4way_61" toJunction="3way_60"/>
<trip id="207" depart="32.4576" fromJunction="3way_3" toJunction="3way_221"/>
<trip id="208" depart="32.614399999999996" fromJunction="4way_112" toJunction="3way_209"/>
<trip id="209" depart="32.7712" fromJunction="4way_178" toJunction="4way_133"/>
<trip id="210" depart="32.928" fromJunction="3way_213" toJunction="4way_198"/>
<trip id="211" depart="33.0848" fromJunction="4way_80" toJunction="4way_187"/>
<trip id="212" depart="33.2416" fromJunction="3way_44" toJunction="4way_178"/>
<trip id="213" depart="33.3984" fromJunction="4way_181" toJunction="4way_85"/>
<trip id="214" depart="33.5552" fromJunction="4way_68" toJunction="4way_31"/>
<trip id="215" depart="33.711999999999996" fromJunction="4way_83" toJunction="4way_46"/>
<trip id="216" depart="33.8688" fromJunction="4way_49" toJunction="4way_170"/>
<trip id="217" depart="34.0256" fromJunction="4way_181" toJunction="4way_96"/>
<trip id="218" depart="34.1824" fromJunction="4way_19" toJunction="4way_24"/>
<trip id="219" depart="34.3392" fromJunction="4way_41" toJunction="4way_33"/>
<trip id="220" depart="34.496" fromJunction="3way_11" toJunction="4way_162"/>
<trip id="221" depart="34.6528" fromJunction="4way_197" toJunction="3way_15"/>
<trip id="222" depart="34.809599999999996" fromJunction="4way_163" toJunction="4way_190"/>
<trip id="223" depart="34.9664" fromJunction="4way_87" toJunction="4way_118"/>
<trip id="224" depart="35.1232" fromJunction="4way_193" toJunction="4way_17"/>
<trip id="225" depart="35.28" fromJunction="3way_179" toJunction="4way_61"/>
<trip id="226" depart="35.4368" fromJunction="3way_15" toJunction="4way_58"/>
<trip id="227" depart="35.5936" fromJunction="3way_13" toJunction="4way_158"/>
<trip id="228" depart="35.7504" fromJunction="4way_206" toJunction="4way_99"/>
<trip id="229" depart="35.907199999999996" fromJunction="4way_93" toJunction="4way_136"/>
<trip id="230" depart="36.064" fromJunction="4way_159" toJunction="4way_78"/>
<trip id="231" depart="36.2208" fromJunction="3way_212" toJunction="4way_16"/>
<trip id="232" depart="36.3776" fromJunction="4way_47" toJunction="4way_139"/>
<trip id="233" depart="36.5344" fromJunction="4way_16" toJunction="4way_71"/>
<trip id="234" depart="36.6912" fromJunction="4way_28" toJunction="4way_125"/>
<trip id="235" depart="36.848" fromJunction="4way_161" toJunction="4way_172"/>
<trip id="236" depart="37.004799999999996" fromJunction="4way_159" toJunction="4way_207"/>
<trip id="237" depart="37.1616" fromJunction="4way_103" toJunction="4way_188"/>
<trip id="238" depart="37.3184" fromJunction="4way_139" toJunction="4way_193"/>
<trip id="239" depart="37.4752" fromJunction="4way_196" toJunction="3way_59"/>
<trip id="240" depart="37.632" fromJunction="4way_34" toJunction="3way_216"/>
<trip id="241" depart="37.7888" fromJunction="4way_67" toJunction="3way_220"/>
<trip id="242" depart="37.9456" fromJunction="4way_57" toJunction="4way_108"/>
<trip id="243" depart="38.102399999999996" fromJunction="4way_66" toJunction="4way_103"/>
<trip id="244" depart="38.2592" fromJunction="4way_22" toJunction="4way_136"/>
<trip id="245" depart="38.416" fromJunction="4way_183" toJunction="4way_72"/>
<trip id="246" depart="38.5728" fromJunction="4way_136" toJunction="4way_96"/>
<trip id="247" depart="38.7296" fromJunction="4way_168" toJunction="4way_154"/>
<trip id="248" depart="38.8864" fromJunction="4way_125" toJunction="4way_46"/>
<trip id="249" depart="39.0432" fromJunction="4way_78" toJunction="4way_62"/>
<trip id="250" depart="39.199999999999996" fromJunction="4way_159" toJunction="4way_200"/>
<trip id="251" depart="39.3568" fromJunction="4way_162" toJunction="4way_137"/>
<trip id="252" depart="39.5136" fromJunction="3way_11" toJunction="4way_146"/>
<trip id="253" depart="39.6704" fromJunction="4way_124" toJunction="4way_76"/>
<trip id="254" depart="39.8272" fromJunction="4way_197" toJunction="3way_179"/>
<trip id="255" depart="39.984" fromJunction="4way_128" toJunction="4way_129"/>
<trip id="256" depart="40.1408" fromJunction="4way_39" toJunction="4way_127"/>
<trip id="257" depart="40.297599999999996" fromJunction="4way_167" toJunction="3way_105"/>
<trip id="258" depart="40.4544" fromJunction="4way_206" toJunction="4way_113"/>
<trip id="259" depart="40.6112" fromJunction="4way_166" toJunction="4way_66"/>
<trip id="260" depart="40.768" fromJunction="4way_24" toJunction="3way_7"/>
<trip id="261" depart="40.9248" fromJunction="4way_78" toJunction="3way_2"/>
<trip id="262" depart="41.0816" fromJunction="4way_147" toJunction="4way_21"/>
<trip id="263" depart="41.2384" fromJunction="4way_183" toJunction="3way_119"/>
<trip id="264" depart="41.395199999999996" fromJunction="4way_167" toJunction="3way_6"/>
<trip id="265" depart="41.552" fromJunction="4way_151" toJunction="4way_127"/>
<trip id="266" depart="41.7088" fromJunction="3way_209" toJunction="3way_90"/>
<trip id="267" depart="41.8656" fromJunction="4way_173" toJunction="4way_171"/>
<trip id="268" depart="42.0224" fromJunction="4way_43" toJunction="4way_98"/>
<trip id="269" depart="42.1792" fromJunction="4way_23" toJunction="3way_1"/>
<trip id="270" depart="42.336" fromJunction="4way_22" toJunction="4way_52"/>
<trip id="271" depart="42.492799999999995" fromJunction="3way_4" toJunction="4way_88"/>
<trip id="272" depart="42.6496" fromJunction="4way_175" toJunction="4way_173"/>
<trip id="273" depart="42.8064" fromJunction="4way_137" toJunction="4way_140"/>
<trip id="274" depart="42.9632" fromJunction="3way_149" toJunction="4way_100"/>
<trip id="275" depart="43.12" fromJunction="4way_170" toJunction="4way_109"/>
<trip id="276" depart="43.2768" fromJunction="3way_134" toJunction="4way_173"/>
<trip id="277" depart="43.4336" fromJunction="4way_198" toJunction="3way_30"/>
<trip id="278" depart="43.590399999999995" fromJunction="4way_42" toJunction="4way_127"/>
<trip id="279" depart="43.7472" fromJunction="3way_220" toJunction="4way_112"/>
<trip id="280" depart="43.903999999999996" fromJunction="4way_176" toJunction="4way_148"/>
<trip id="281" depart="44.0608" fromJunction="4way_147" toJunction="4way_125"/>
<trip id="282" depart="44.2176" fromJunction="4way_162" toJunction="4way_51"/>
<trip id="283" depart="44.3744" fromJunction="4way_103" toJunction="4way_41"/>
<trip id="284" depart="44.5312" fromJunction="3way_8" toJunction="4way_147"/>
<trip id="285" depart="44.687999999999995" fromJunction="4way_123" toJunction="3way_211"/>
<trip id="286" depart="44.8448" fromJunction="4way_32" toJunction="4way_58"/>
<trip id="287" depart="45.001599999999996" fromJunction="4way_27" toJunction="3way_214"/>
<trip id="288" depart="45.1584" fromJunction="4way_102" toJunction="4way_124"/>
<trip id="289" depart="45.3152" fromJunction="4way_68" toJunction="3way_214"/>
<trip id="290" depart="45.472" fromJunction="3way_74" toJunction="4way_109"/>
<trip id="291" depart="45.6288" fromJunction="4way_46" toJunction="4way_173"/>
<trip id="292" depart="45.785599999999995" fromJunction="3way_29" toJunction="3way_9"/>
<trip id="293" depart="45.9424" fromJunction="4way_102" toJunction="3way_29"/>
<trip id="294" depart="46.099199999999996" fromJunction="4way_72" toJunction="4way_129"/>
<trip id="295" depart="46.256" fromJunction="4way_200" toJunction="4way_98"/>
<trip id="296" depart="46.4128" fromJunction="4way_208" toJunction="4way_47"/>
<trip id="297" depart="46.5696" fromJunction="4way_20" toJunction="4way_48"/>
<trip id="298" depart="46.7264" fromJunction="4way_148" toJunction="4way_93"/>
<trip id="299" depart="46.883199999999995" fromJunction="4way_122" toJunction="3way_211"/>
<trip id="300" depart="47.04" fromJunction="3way_29" toJunction="4way_128"/>
<trip id="301" depart="47.196799999999996" fromJunction="4way_35" toJunction="4way_82"/>
<trip id="302" depart="47.3536" fromJunction="4way_16" toJunction="4way_166"/>
<trip id="303" depart="47.5104" fromJunction="4way_63" toJunction="4way_155"/>
<trip id="304" depart="47.6672" fromJunction="4way_152" toJunction="4way_154"/>
<trip id="305" depart="47.824" fromJunction="3way_220" toJunction="4way_118"/>
<trip id="306" depart="47.980799999999995" fromJunction="4way_167" toJunction="3way_149"/>
<trip id="307" depart="48.1376" fromJunction="4way_53" toJunction="4way_22"/>
<trip id="308" depart="48.294399999999996" fromJunction="4way_208" toJunction="4way_153"/>
<trip id="309" depart="48.4512" fromJunction="4way_69" toJunction="4way_197"/>
<trip id="310" depart="48.608" fromJunction="4way_175" toJunction="4way_172"/>
<trip id="311" depart="48.7648" fromJunction="4way_42" toJunction="4way_133"/>
<trip id="312" depart="48.9216" fromJunction="4way_188" toJunction="4way_204"/>
<trip id="313" depart="49.078399999999995" fromJunction="3way_217" toJunction="4way_152"/>
<trip id="314" depart="49.2352" fromJunction="4way_31" toJunction="3way_29"/>
<trip id="315" depart="49.391999999999996" fromJunction="4way_185" toJunction="4way_79"/>
<trip id="316" depart="49.5488" fromJunction="4way_73" toJunction="4way_40"/>
<trip id="317" depart="49.7056" fromJunction="3way_179" toJunction="3way_209"/>
<trip id="318" depart="49.8624" fromJunction="4way_144" toJunction="4way_22"/>
<trip id="319" depart="50.0192" fromJunction="4way_192" toJunction="4way_101"/>
<trip id="320" depart="50.176" fromJunction="4way_168" toJunction="4way_163"/>
<trip id="321" depart="50.3328" fromJunction="3way_217" toJunction="4way_108"/>
<trip id="322" depart="50.489599999999996" fromJunction="4way_53" toJunction="4way_143"/>
<trip id="323" depart="50.6464" fromJunction="3way_149" toJunction="4way_146"/>
<trip id="324" depart="50.8032" fromJunction="4way_186" toJunction="4way_110"/>
<trip id="325" depart="50.96" fromJunction="3way_212" toJunction="4way_31"/>
<trip id="326" depart="51.1168" fromJunction="3way_13" toJunction="4way_131"/>
<trip id="327" depart="51.2736" fromJunction="3way_209" toJunction="4way_20"/>
<trip id="328" depart="51.4304" fromJunction="4way_148" toJunction="4way_169"/>
<trip id="329" depart="51.587199999999996" fromJunction="4way_131" toJunction="4way_49"/>
<trip id="330" depart="51.744" fromJunction="4way_121" toJunction="3way_209"/>
<trip id="331" depart="51.9008" fromJunction="4way_168" toJunction="4way_183"/>
<trip id="332" depart="52.0576" fromJunction="4way_182" toJunction="4way_98"/>
<trip id="333" depart="52.2144" fromJunction="4way_187" toJunction="4way_39"/>
<trip id="334" depart="52.3712" fromJunction="4way_79" toJunction="4way_168"/>
<trip id="335" depart="52.528" fromJunction="3way_59" toJunction="4way_97"/>
<trip id="336" depart="52.684799999999996" fromJunction="4way_38" toJunction="4way_205"/>
<trip id="337" depart="52.8416" fromJunction="4way_36" toJunction="4way_84"/>
<trip id="338" depart="52.9984" fromJunction="4way_183" toJunction="3way_194"/>
<trip id="339" depart="53.1552" fromJunction="4way_92" toJunction="4way_183"/>
<trip id="340" depart="53.312" fromJunction="4way_114" toJunction="3way_7"/>
<trip id="341" depart="53.4688" fromJunction="4way_67" toJunction="3way_194"/>
<trip id="342" depart="53.6256" fromJunction="4way_172" toJunction="4way_203"/>
<trip id="343" depart="53.782399999999996" fromJunction="3way_164" toJunction="4way_73"/>
<trip id="344" depart="53.9392" fromJunction="3way_7" toJunction="4way_161"/>
<trip id="345" depart="54.096" fromJunction="4way_183" toJunction="4way_36"/>
<trip id="346" depart="54.2528" fromJunction="4way_48" toJunction="4way_185"/>
<trip id="347" depart="54.4096" fromJunction="3way_5" toJunction="3way_150"/>
<trip id="348" depart="54.5664" fromJunction="4way_86" toJunction="4way_170"/>
<trip id="349" depart="54.7232" fromJunction="3way_45" toJunction="4way_78"/>
<trip id="350" depart="54.879999999999995" fromJunction="3way_104" toJunction="3way_89"/>
<trip id="351" depart="55.0368" fromJunction="3way_164" toJunction="3way_60"/>
<trip id="352" depart="55.193599999999996" fromJunction="3way_44" toJunction="4way_106"/>
<trip id="353" depart="55.3504" fromJunction="4way_131" toJunction="3way_44"/>
<trip id="354" depart="55.5072" fromJunction="4way_111" toJunction="3way_214"/>
<trip id="355" depart="55.664" fromJunction="4way_154" toJunction="4way_40"/>
<trip id="356" depart="55.8208" fromJunction="3way_120" toJunction="3way_216"/>
<trip id="357" depart="55.977599999999995" fromJunction="4way_200" toJunction="4way_79"/>
<trip id="358" depart="56.1344" fromJunction="4way_70" toJunction="4way_197"/>
<trip id="359" depart="56.291199999999996" fromJunction="4way_162" toJunction="4way_159"/>
<trip id="360" depart="56.448" fromJunction="4way_57" toJunction="3way_7"/>
<trip id="361" depart="56.6048" fromJunction="4way_206" toJunction="4way_138"/>
<trip id="362" depart="56.7616" fromJunction="4way_178" toJunction="4way_158"/>
<trip id="363" depart="56.9184" fromJunction="4way_48" toJunction="4way_189"/>
<trip id="364" depart="57.075199999999995" fromJunction="4way_93" toJunction="4way_110"/>
<trip id="365" depart="57.232" fromJunction="4way_91" toJunction="4way_48"/>
<trip id="366" depart="57.388799999999996" fromJunction="4way_128" toJunction="4way_95"/>
<trip id="367" depart="57.5456" fromJunction="4way_185" toJunction="4way_151"/>
<trip id="368" depart="57.7024" fromJunction="3way_214" toJunction="3way_209"/>
<trip id="369" depart="57.8592" fromJunction="4way_118" toJunction="3way_11"/>