<?xml version="1.0" encoding="UTF-8"?>

<!-- generated on 2023-07-27 05:46:32 by Eclipse SUMO duarouter Version 1.12.0
<configuration xmlns:xsi="http://www.w3.org/2001/XMLSchema-instance" xsi:noNamespaceSchemaLocation="http://sumo.dlr.de/xsd/duarouterConfiguration.xsd">

    <input>
        <net-file value="sq.net.xml"/>
        <route-files value="sq.trips.xml"/>
        <junction-taz value="true"/>
    </input>

    <output>
        <output-file value="sq.rou.xml"/>
        <alternatives-output value="sq.rou.alt.xml"/>
    </output>

    <processing>
        <weights.random-factor value="1.2"/>
    </processing>

    <time>
        <begin value="0"/>
        <end value="7200"/>
    </time>

    <report>
        <verbose value="true"/>
    </report>

    <random_number>
        <seed value="5"/>
    </random_number>

</configuration>
-->

<routes xmlns:xsi="http://www.w3.org/2001/XMLSchema-instance" xsi:noNamespaceSchemaLocation="http://sumo.dlr.de/xsd/routes_file.xsd">
    <vehicle id="0" depart="0.00">
        <route edges="63_4way_24to4way_31 72_4way_31to4way_38 77_4way_38to4way_37 76_4way_37to4way_36"/>
    </vehicle>
    <vehicle id="1" depart="0.71">
        <route edges="76_4way_36to4way_37 70_4way_37to4way_30 61_4way_30to4way_23"/>
    </vehicle>
    <vehicle id="2" depart="1.43">
        <route edges="70_4way_37to4way_30 61_4way_30to4way_23 51_4way_23to4way_16 52_4way_16to4way_9 80_4way_9to4way_8 40_4way_8to3way_7"/>
    </vehicle>
    <vehicle id="3" depart="2.14">
        <route edges="44_4way_12to4way_11 41_4way_11to4way_10 43_4way_10to4way_9 80_4way_9to4way_8 40_4way_8to3way_7"/>
    </vehicle>
    <vehicle id="4" depart="2.86">
        <route edges="14_3way_21to3way_28 19_3way_28to4way_29 67_4way_29to4way_30 69_4way_30to4way_31 71_4way_31to4way_32 73_4way_32to4way_33"/>
    </vehicle>
    <vehicle id="5" depart="3.57">
        <route edges="67_4way_29to4way_30 69_4way_30to4way_31 71_4way_31to4way_32 65_4way_32to4way_25 56_4way_25to4way_18 45_4way_18to4way_11"/>
    </vehicle>
    <vehicle id="6" depart="4.29">
        <route edges="46_4way_19to4way_12 44_4way_12to4way_11 41_4way_11to4way_10 43_4way_10to4way_9"/>
    </vehicle>
    <vehicle id="7" depart="5.00">
        <route edges="56_4way_25to4way_18 45_4way_18to4way_11 27_4way_11to3way_4 20_3way_4to3way_3 10_3way_3to3way_2 1_3way_2to3way_1"/>
    </vehicle>
    <vehicle id="8" depart="5.71">
        <route edges="74_4way_39to4way_32 65_4way_32to4way_25 56_4way_25to4way_18 45_4way_18to4way_11"/>
    </vehicle>
    <vehicle id="9" depart="6.43">
        <route edges="45_4way_11to4way_18 56_4way_18to4way_25 65_4way_25to4way_32 74_4way_32to4way_39 79_4way_39to4way_40"/>
    </vehicle>
    <vehicle id="10" depart="7.14">
        <route edges="41_4way_11to4way_10 43_4way_10to4way_9 80_4way_9to4way_8"/>
    </vehicle>
    <vehicle id="11" depart="7.86">
        <route edges="61_4way_30to4way_23 51_4way_23to4way_16 52_4way_16to4way_9 43_4way_9to4way_10 41_4way_10to4way_11 44_4way_11to4way_12 6_4way_12to3way_13"/>
    </vehicle>
    <vehicle id="12" depart="8.57">
        <route edges="17_4way_26to3way_27 12_3way_27to3way_20"/>
    </vehicle>
    <vehicle id="13" depart="9.29">
        <route edges="7_3way_14to3way_21 14_3way_21to3way_28 19_3way_28to4way_29"/>
    </vehicle>
    <vehicle id="14" depart="10.00">
        <route edges="35_4way_38to3way_45 34_3way_45to3way_46"/>
    </vehicle>
    <vehicle id="15" depart="10.71">
        <route edges="80_4way_9to4way_8"/>
    </vehicle>
    <vehicle id="16" depart="11.43">
        <route edges="51_4way_23to4way_16 52_4way_16to4way_9 11_4way_9to3way_2 1_3way_2to3way_1"/>
    </vehicle>
    <vehicle id="17" depart="12.14">
        <route edges="42_4way_10to4way_17 54_4way_17to4way_24 62_4way_24to4way_25 64_4way_25to4way_26"/>
    </vehicle>
    <vehicle id="18" depart="12.86">
        <route edges="8_3way_7to3way_14 7_3way_14to3way_21 14_3way_21to3way_28"/>
    </vehicle>
    <vehicle id="19" depart="13.57">
        <route edges="21_3way_3to4way_10 42_4way_10to4way_17"/>
    </vehicle>
    <vehicle id="20" depart="14.28">
        <route edges="4_3way_13to3way_20 12_3way_20to3way_27 16_3way_27to3way_34 22_3way_34to3way_41"/>
    </vehicle>
    <vehicle id="21" depart="15.00">
        <route edges="18_3way_28to3way_35 24_3way_35to3way_43"/>
    </vehicle>
    <vehicle id="22" depart="15.71">
        <route edges="40_3way_7to4way_8 80_4way_8to4way_9"/>
    </vehicle>
    <vehicle id="23" depart="16.43">
        <route edges="39_3way_5to4way_12 46_4way_12to4way_19 57_4way_19to4way_26 66_4way_26to4way_33 75_4way_33to4way_40"/>
    </vehicle>
    <vehicle id="24" depart="17.14">
        <route edges="16_3way_27to3way_34 22_3way_34to3way_41"/>
    </vehicle>
    <vehicle id="25" depart="17.86">
        <route edges="37_3way_46to4way_39 78_4way_39to4way_38 77_4way_38to4way_37"/>
    </vehicle>
    <vehicle id="26" depart="18.57">
        <route edges="38_3way_47to4way_40 75_4way_40to4way_33 66_4way_33to4way_26 57_4way_26to4way_19 46_4way_19to4way_12 44_4way_12to4way_11 41_4way_11to4way_10 43_4way_10to4way_9 80_4way_9to4way_8"/>
    </vehicle>
    <vehicle id="27" depart="19.28">
        <route edges="39_3way_5to4way_12 6_4way_12to3way_13 4_3way_13to3way_20 12_3way_20to3way_27"/>
    </vehicle>
    <vehicle id="28" depart="20.00">
        <route edges="13_3way_20to4way_19 55_4way_19to4way_18 53_4way_18to4way_17 50_4way_17to4way_16 51_4way_16to4way_23 61_4way_23to4way_30 70_4way_30to4way_37"/>
    </vehicle>
    <vehicle id="29" depart="20.71">
        <route edges="19_3way_28to4way_29 67_4way_29to4way_30 69_4way_30to4way_31 71_4way_31to4way_32 73_4way_32to4way_33 23_4way_33to3way_34"/>
    </vehicle>
    <vehicle id="30" depart="21.43">
        <route edges="26_3way_5to3way_4 27_3way_4to4way_11 45_4way_11to4way_18"/>
    </vehicle>
    <vehicle id="31" depart="22.14">
        <route edges="26_3way_5to3way_4 27_3way_4to4way_11 45_4way_11to4way_18 56_4way_18to4way_25"/>
    </vehicle>
    <vehicle id="32" depart="22.85">
        <route edges="48_4way_15to4way_22 59_4way_22to4way_29 67_4way_29to4way_30 69_4way_30to4way_31 71_4way_31to4way_32 73_4way_32to4way_33"/>
    </vehicle>
    <vehicle id="33" depart="23.57">
        <route edges="61_4way_23to4way_30 69_4way_30to4way_31 71_4way_31to4way_32 73_4way_32to4way_33"/>
    </vehicle>
    <vehicle id="34" depart="24.28">
        <route edges="11_3way_2to4way_9 52_4way_9to4way_16 51_4way_16to4way_23 61_4way_23to4way_30 69_4way_30to4way_31"/>
    </vehicle>
    <vehicle id="35" depart="25.00">
        <route edges="6_3way_13to4way_12 46_4way_12to4way_19 57_4way_19to4way_26 66_4way_26to4way_33 75_4way_33to4way_40 38_4way_40to3way_47 36_3way_47to3way_46 34_3way_46to3way_45"/>
    </vehicle>
    <vehicle id="36" depart="25.71">
        <route edges="4_3way_13to3way_20 12_3way_20to3way_27 16_3way_27to3way_34 22_3way_34to3way_41 28_3way_41to3way_47 36_3way_47to3way_46 34_3way_46to3way_45 32_3way_45to3way_44"/>
    </vehicle>
    <vehicle id="37" depart="26.43">
        <route edges="7_3way_14to3way_21 14_3way_21to3way_28 18_3way_28to3way_35 24_3way_35to3way_43"/>
    </vehicle>
    <vehicle id="38" depart="27.14">
        <route edges="42_4way_17to4way_10 21_4way_10to3way_3"/>
    </vehicle>
    <vehicle id="39" depart="27.85">
        <route edges="37_3way_46to4way_39 74_4way_39to4way_32 65_4way_32to4way_25 56_4way_25to4way_18 45_4way_18to4way_11 41_4way_11to4way_10 43_4way_10to4way_9"/>
    </vehicle>
    <vehicle id="40" depart="28.57">
        <route edges="26_3way_5to3way_4 20_3way_4to3way_3 10_3way_3to3way_2 1_3way_2to3way_1 3_3way_1to4way_8 49_4way_8to4way_15 48_4way_15to4way_22 59_4way_22to4way_29"/>
    </vehicle>
    <vehicle id="41" depart="29.28">
        <route edges="46_4way_19to4way_12 44_4way_12to4way_11 41_4way_11to4way_10 43_4way_10to4way_9"/>
    </vehicle>
    <vehicle id="42" depart="30.00">
        <route edges="43_4way_10to4way_9 80_4way_9to4way_8 49_4way_8to4way_15 48_4way_15to4way_22 59_4way_22to4way_29 68_4way_29to4way_36 31_4way_36to3way_43"/>
    </vehicle>
    <vehicle id="43" depart="30.71">
        <route edges="62_4way_24to4way_25 64_4way_25to4way_26 17_4way_26to3way_27 12_3way_27to3way_20 4_3way_20to3way_13"/>
    </vehicle>
    <vehicle id="44" depart="31.43">
        <route edges="23_3way_34to4way_33 73_4way_33to4way_32 71_4way_32to4way_31 69_4way_31to4way_30 70_4way_30to4way_37 33_4way_37to3way_44"/>
    </vehicle>
    <vehicle id="45" depart="32.14">
        <route edges="3_3way_1to4way_8 49_4way_8to4way_15 47_4way_15to4way_16"/>
    </vehicle>
    <vehicle id="46" depart="32.85">
        <route edges="3_3way_1to4way_8 49_4way_8to4way_15 48_4way_15to4way_22 58_4way_22to4way_23 60_4way_23to4way_24 62_4way_24to4way_25"/>
    </vehicle>
    <vehicle id="47" depart="33.57">
        <route edges="35_3way_45to4way_38 72_4way_38to4way_31 63_4way_31to4way_24 54_4way_24to4way_17 42_4way_17to4way_10"/>
    </vehicle>
    <vehicle id="48" depart="34.28">
        <route edges="73_4way_33to4way_32 71_4way_32to4way_31"/>
    </vehicle>
    <vehicle id="49" depart="35.00">
        <route edges="52_4way_9to4way_16 51_4way_16to4way_23 61_4way_23to4way_30 70_4way_30to4way_37 33_4way_37to3way_44 32_3way_44to3way_45 34_3way_45to3way_46"/>
    </vehicle>
    <vehicle id="50" depart="35.71">
        <route edges="52_4way_9to4way_16"/>
    </vehicle>
    <vehicle id="51" depart="36.42">
        <route edges="66_4way_26to4way_33 75_4way_33to4way_40 38_4way_40to3way_47"/>
    </vehicle>
    <vehicle id="52" depart="37.14">
        <route edges="65_4way_32to4way_25 56_4way_25to4way_18 45_4way_18to4way_11 41_4way_11to4way_10 43_4way_10to4way_9 80_4way_9to4way_8"/>
    </vehicle>
    <vehicle id="53" depart="37.85">
        <route edges="32_3way_44to3way_45 35_3way_45to4way_38 72_4way_38to4way_31 63_4way_31to4way_24 54_4way_24to4way_17"/>
    </vehicle>
    <vehicle id="54" depart="38.57">
        <route edges="15_3way_21to4way_22 58_4way_22to4way_23 60_4way_23to4way_24 62_4way_24to4way_25 56_4way_25to4way_18"/>
    </vehicle>
    <vehicle id="55" depart="39.28">
        <route edges="51_4way_16to4way_23 61_4way_23to4way_30 70_4way_30to4way_37 77_4way_37to4way_38 78_4way_38to4way_39"/>
    </vehicle>
    <vehicle id="56" depart="40.00">
        <route edges="54_4way_17to4way_24 63_4way_24to4way_31 72_4way_31to4way_38 78_4way_38to4way_39"/>
    </vehicle>
    <vehicle id="57" depart="40.71">
        <route edges="58_4way_22to4way_23 60_4way_23to4way_24"/>
    </vehicle>
    <vehicle id="58" depart="41.42">
        <route edges="69_4way_30to4way_31 71_4way_31to4way_32 73_4way_32to4way_33"/>
    </vehicle>
    <vehicle id="59" depart="42.14">
        <route edges="58_4way_23to4way_22 15_4way_22to3way_21 7_3way_21to3way_14 8_3way_14to3way_7"/>
    </vehicle>
    <vehicle id="60" depart="42.85">
        <route edges="33_3way_44to4way_37 70_4way_37to4way_30 61_4way_30to4way_23 51_4way_23to4way_16 52_4way_16to4way_9 11_4way_9to3way_2 1_3way_2to3way_1"/>
    </vehicle>
    <vehicle id="61" depart="43.57">
        <route edges="33_3way_44to4way_37"/>
    </vehicle>
    <vehicle id="62" depart="44.28">
        <route edges="8_3way_7to3way_14 7_3way_14to3way_21 15_3way_21to4way_22 58_4way_22to4way_23"/>
    </vehicle>
    <vehicle id="63" depart="45.00">
        <route edges="32_3way_44to3way_45 34_3way_45to3way_46 36_3way_46to3way_47 28_3way_47to3way_41 22_3way_41to3way_34 16_3way_34to3way_27 12_3way_27to3way_20"/>
    </vehicle>
    <vehicle id="64" depart="45.71">
        <route edges="52_4way_16to4way_9"/>
    </vehicle>
    <vehicle id="65" depart="46.42">
        <route edges="70_4way_37to4way_30 61_4way_30to4way_23 51_4way_23to4way_16 52_4way_16to4way_9"/>
    </vehicle>
    <vehicle id="66" depart="47.14">
        <route edges="8_3way_7to3way_14 7_3way_14to3way_21 14_3way_21to3way_28 18_3way_28to3way_35 25_3way_35to4way_36 76_4way_36to4way_37"/>
    </vehicle>
    <vehicle id="67" depart="47.85">
        <route edges="19_3way_28to4way_29 67_4way_29to4way_30 69_4way_30to4way_31 71_4way_31to4way_32 73_4way_32to4way_33 66_4way_33to4way_26 57_4way_26to4way_19 46_4way_19to4way_12"/>
    </vehicle>
    <vehicle id="68" depart="48.57">
        <route edges="44_4way_12to4way_11 41_4way_11to4way_10 43_4way_10to4way_9 80_4way_9to4way_8 40_4way_8to3way_7"/>
    </vehicle>
    <vehicle id="69" depart="49.28">
        <route edges="53_4way_17to4way_18"/>
    </vehicle>
    <vehicle id="70" depart="49.99">
        <route edges="46_4way_19to4way_12 39_4way_12to3way_5"/>
    </vehicle>
    <vehicle id="71" depart="50.71">
        <route edges="75_4way_40to4way_33 66_4way_33to4way_26 64_4way_26to4way_25 62_4way_25to4way_24"/>
    </vehicle>
    <vehicle id="72" depart="51.42">
        <route edges="79_4way_39to4way_40 29_4way_40to3way_41 22_3way_41to3way_34 16_3way_34to3way_27 12_3way_27to3way_20"/>
    </vehicle>
    <vehicle id="73" depart="52.14">
        <route edges="60_4way_23to4way_24 62_4way_24to4way_25 64_4way_25to4way_26 17_4way_26to3way_27"/>
    </vehicle>
    <vehicle id="74" depart="52.85">
        <route edges="73_4way_32to4way_33 23_4way_33to3way_34 16_3way_34to3way_27 12_3way_27to3way_20 4_3way_20to3way_13"/>
    </vehicle>
    <vehicle id="75" depart="53.57">
        <route edges="52_4way_9to4way_16 50_4way_16to4way_17 53_4way_17to4way_18"/>
    </vehicle>
    <vehicle id="76" depart="54.28">
        <route edges="20_3way_4to3way_3 10_3way_3to3way_2 1_3way_2to3way_1 2_3way_1to3way_7 8_3way_7to3way_14"/>
    </vehicle>
    <vehicle id="77" depart="54.99">
        <route edges="49_4way_8to4way_15 47_4way_15to4way_16 50_4way_16to4way_17"/>
    </vehicle>
    <vehicle id="78" depart="55.71">
        <route edges="65_4way_32to4way_25 62_4way_25to4way_24"/>
    </vehicle>
    <vehicle id="79" depart="56.42">
        <route edges="73_4way_32to4way_33"/>
    </vehicle>
    <vehicle id="80" depart="57.14">
        <route edges="19_3way_28to4way_29 59_4way_29to4way_22 48_4way_22to4way_15 49_4way_15to4way_8 3_4way_8to3way_1"/>
    </vehicle>
    <vehicle id="81" depart="57.85">
        <route edges="17_3way_27to4way_26 64_4way_26to4way_25 62_4way_25to4way_24"/>
    </vehicle>
    <vehicle id="82" depart="58.56">
        <route edges="21_3way_3to4way_10 42_4way_10to4way_17 54_4way_17to4way_24 60_4way_24to4way_23 58_4way_23to4way_22 59_4way_22to4way_29"/>
    </vehicle>
    <vehicle id="83" depart="59.28">
        <route edges="3_3way_1to4way_8 49_4way_8to4way_15 48_4way_15to4way_22 59_4way_22to4way_29 67_4way_29to4way_30 69_4way_30to4way_31 71_4way_31to4way_32 73_4way_32to4way_33 23_4way_33to3way_34"/>
    </vehicle>
    <vehicle id="84" depart="59.99">
        <route edges="38_3way_47to4way_40 75_4way_40to4way_33 66_4way_33to4way_26 57_4way_26to4way_19 46_4way_19to4way_12 44_4way_12to4way_11"/>
    </vehicle>
    <vehicle id="85" depart="60.71">
        <route edges="55_4way_19to4way_18 53_4way_18to4way_17 50_4way_17to4way_16 47_4way_16to4way_15 9_4way_15to3way_14 7_3way_14to3way_21 14_3way_21to3way_28 18_3way_28to3way_35"/>
    </vehicle>
    <vehicle id="86" depart="61.42">
        <route edges="11_3way_2to4way_9 52_4way_9to4way_16 50_4way_16to4way_17"/>
    </vehicle>
    <vehicle id="87" depart="62.14">
        <route edges="60_4way_23to4way_24 62_4way_24to4way_25 64_4way_25to4way_26 17_4way_26to3way_27"/>
    </vehicle>
    <vehicle id="88" depart="62.85">
        <route edges="38_3way_47to4way_40 75_4way_40to4way_33 66_4way_33to4way_26 57_4way_26to4way_19 46_4way_19to4way_12 44_4way_12to4way_11 41_4way_11to4way_10 43_4way_10to4way_9"/>
    </vehicle>
    <vehicle id="89" depart="63.56">
        <route edges="60_4way_23to4way_24 62_4way_24to4way_25 64_4way_25to4way_26"/>
    </vehicle>
    <vehicle id="90" depart="64.28">
        <route edges="47_4way_16to4way_15 48_4way_15to4way_22 59_4way_22to4way_29 68_4way_29to4way_36"/>
    </vehicle>
    <vehicle id="91" depart="64.99">
        <route edges="30_3way_43to3way_44 32_3way_44to3way_45 35_3way_45to4way_38 72_4way_38to4way_31 63_4way_31to4way_24"/>
    </vehicle>
    <vehicle id="92" depart="65.71">
        <route edges="29_3way_41to4way_40 79_4way_40to4way_39 78_4way_39to4way_38 77_4way_38to4way_37 76_4way_37to4way_36 25_4way_36to3way_35 18_3way_35to3way_28 14_3way_28to3way_21"/>
    </vehicle>
    <vehicle id="93" depart="66.42">
        <route edges="66_4way_26to4way_33 23_4way_33to3way_34"/>
    </vehicle>
    <vehicle id="94" depart="67.14">
        <route edges="59_4way_22to4way_29 67_4way_29to4way_30 69_4way_30to4way_31"/>
    </vehicle>
    <vehicle id="95" depart="67.85">
        <route edges="36_3way_46to3way_47"/>
    </vehicle>
    <vehicle id="96" depart="68.56">
        <route edges="2_3way_7to3way_1 1_3way_1to3way_2 10_3way_2to3way_3"/>
    </vehicle>
    <vehicle id="97" depart="69.28">
        <route edges="50_4way_17to4way_16 47_4way_16to4way_15 48_4way_15to4way_22 59_4way_22to4way_29 68_4way_29to4way_36 31_4way_36to3way_43"/>
    </vehicle>
    <vehicle id="98" depart="69.99">
        <route edges="23_3way_34to4way_33 73_4way_33to4way_32 71_4way_32to4way_31 69_4way_31to4way_30 67_4way_30to4way_29 19_4way_29to3way_28"/>
    </vehicle>
    <vehicle id="99" depart="70.71">
        <route edges="20_3way_4to3way_3 10_3way_3to3way_2"/>
    </vehicle>
    <vehicle id="100" depart="71.42">
        <route edges="80_4way_8to4way_9 43_4way_9to4way_10"/>
    </vehicle>
    <vehicle id="101" depart="72.13">
        <route edges="44_4way_12to4way_11 41_4way_11to4way_10 43_4way_10to4way_9 80_4way_9to4way_8 49_4way_8to4way_15 48_4way_15to4way_22 59_4way_22to4way_29 68_4way_29to4way_36"/>
    </vehicle>
    <vehicle id="102" depart="72.85">
        <route edges="29_3way_41to4way_40"/>
    </vehicle>
    <vehicle id="103" depart="73.56">
        <route edges="37_3way_46to4way_39 78_4way_39to4way_38 77_4way_38to4way_37"/>
    </vehicle>
    <vehicle id="104" depart="74.28">
        <route edges="72_4way_38to4way_31 63_4way_31to4way_24 54_4way_24to4way_17 42_4way_17to4way_10 21_4way_10to3way_3 10_3way_3to3way_2 1_3way_2to3way_1"/>
    </vehicle>
    <vehicle id="105" depart="74.99">
        <route edges="14_3way_21to3way_28 18_3way_28to3way_35 24_3way_35to3way_43"/>
    </vehicle>
    <vehicle id="106" depart="75.71">
        <route edges="56_4way_25to4way_18 53_4way_18to4way_17 50_4way_17to4way_16"/>
    </vehicle>
    <vehicle id="107" depart="76.42">
        <route edges="74_4way_39to4way_32 71_4way_32to4way_31 69_4way_31to4way_30"/>
    </vehicle>
    <vehicle id="108" depart="77.13">
        <route edges="41_4way_11to4way_10 42_4way_10to4way_17 54_4way_17to4way_24 63_4way_24to4way_31 72_4way_31to4way_38 35_4way_38to3way_45"/>
    </vehicle>
    <vehicle id="109" depart="77.85">
        <route edges="17_4way_26to3way_27 16_3way_27to3way_34"/>
    </vehicle>
    <vehicle id="110" depart="78.56">
        <route edges="22_3way_41to3way_34 16_3way_34to3way_27 12_3way_27to3way_20 4_3way_20to3way_13 6_3way_13to4way_12 44_4way_12to4way_11 41_4way_11to4way_10"/>
    </vehicle>
    <vehicle id="111" depart="79.28">
        <route edges="62_4way_24to4way_25 64_4way_25to4way_26"/>
    </vehicle>
    <vehicle id="112" depart="79.99">
        <route edges="28_3way_41to3way_47 36_3way_47to3way_46"/>
    </vehicle>
    <vehicle id="113" depart="80.71">
        <route edges="1_3way_2to3way_1 3_3way_1to4way_8 49_4way_8to4way_15 48_4way_15to4way_22 59_4way_22to4way_29"/>
    </vehicle>
    <vehicle id="114" depart="81.42">
        <route edges="8_3way_7to3way_14 7_3way_14to3way_21 14_3way_21to3way_28 19_3way_28to4way_29 67_4way_29to4way_30 69_4way_30to4way_31 71_4way_31to4way_32 73_4way_32to4way_33 23_4way_33to3way_34 22_3way_34to3way_41"/>
    </vehicle>
    <vehicle id="115" depart="82.13">
        <route edges="40_4way_8to3way_7 8_3way_7to3way_14 7_3way_14to3way_21 14_3way_21to3way_28"/>
    </vehicle>
    <vehicle id="116" depart="82.85">
        <route edges="51_4way_16to4way_23 61_4way_23to4way_30 70_4way_30to4way_37 33_4way_37to3way_44 32_3way_44to3way_45"/>
    </vehicle>
    <vehicle id="117" depart="83.56">
        <route edges="6_3way_13to4way_12 44_4way_12to4way_11 45_4way_11to4way_18 56_4way_18to4way_25 65_4way_25to4way_32"/>
    </vehicle>
    <vehicle id="118" depart="84.28">
        <route edges="6_3way_13to4way_12 44_4way_12to4way_11 41_4way_11to4way_10 43_4way_10to4way_9 80_4way_9to4way_8 49_4way_8to4way_15 48_4way_15to4way_22 59_4way_22to4way_29"/>
    </vehicle>
    <vehicle id="119" depart="84.99">
        <route edges="15_3way_21to4way_22 58_4way_22to4way_23 60_4way_23to4way_24"/>
    </vehicle>
    <vehicle id="120" depart="85.70">
        <route edges="23_3way_34to4way_33 73_4way_33to4way_32 65_4way_32to4way_25 56_4way_25to4way_18 45_4way_18to4way_11 41_4way_11to4way_10 43_4way_10to4way_9"/>
    </vehicle>
    <vehicle id="121" depart="86.42">
        <route edges="47_4way_15to4way_16 50_4way_16to4way_17 53_4way_17to4way_18 55_4way_18to4way_19 13_4way_19to3way_20"/>
    </vehicle>
    <vehicle id="122" depart="87.13">
        <route edges="64_4way_26to4way_25 62_4way_25to4way_24 60_4way_24to4way_23 58_4way_23to4way_22 15_4way_22to3way_21 14_3way_21to3way_28"/>
    </vehicle>
    <vehicle id="123" depart="87.85">
        <route edges="72_4way_31to4way_38"/>
    </vehicle>
    <vehicle id="124" depart="88.56">
        <route edges="27_3way_4to4way_11 44_4way_11to4way_12"/>
    </vehicle>
    <vehicle id="125" depart="89.28">
        <route edges="47_4way_16to4way_15 48_4way_15to4way_22 59_4way_22to4way_29 68_4way_29to4way_36"/>
    </vehicle>
    <vehicle id="126" depart="89.99">
        <route edges="32_3way_44to3way_45 34_3way_45to3way_46 36_3way_46to3way_47 38_3way_47to4way_40 75_4way_40to4way_33"/>
    </vehicle>
    <vehicle id="127" depart="90.70">
        <route edges="39_3way_5to4way_12 46_4way_12to4way_19 57_4way_19to4way_26 66_4way_26to4way_33 75_4way_33to4way_40 38_4way_40to3way_47"/>
    </vehicle>
    <vehicle id="128" depart="91.42">
        <route edges="46_4way_19to4way_12 39_4way_12to3way_5 26_3way_5to3way_4 20_3way_4to3way_3 10_3way_3to3way_2 1_3way_2to3way_1"/>
    </vehicle>
    <vehicle id="129" depart="92.13">
        <route edges="41_4way_11to4way_10"/>
    </vehicle>
    <vehicle id="130" depart="92.85">
        <route edges="51_4way_16to4way_23 61_4way_23to4way_30 70_4way_30to4way_37 33_4way_37to3way_44 32_3way_44to3way_45"/>
    </vehicle>
    <vehicle id="131" depart="93.56">
        <route edges="47_4way_15to4way_16 50_4way_16to4way_17 42_4way_17to4way_10 21_4way_10to3way_3"/>
    </vehicle>
    <vehicle id="132" depart="94.27">
        <route edges="79_4way_39to4way_40 75_4way_40to4way_33"/>
    </vehicle>
    <vehicle id="133" depart="94.99">
        <route edges="73_4way_33to4way_32 71_4way_32to4way_31 69_4way_31to4way_30 67_4way_30to4way_29 19_4way_29to3way_28 18_3way_28to3way_35"/>
    </vehicle>
    <vehicle id="134" depart="95.70">
        <route edges="66_4way_26to4way_33 75_4way_33to4way_40 38_4way_40to3way_47"/>
    </vehicle>
    <vehicle id="135" depart="96.42">
        <route edges="45_4way_11to4way_18 56_4way_18to4way_25 64_4way_25to4way_26"/>
    </vehicle>
    <vehicle id="136" depart="97.13">
        <route edges="74_4way_39to4way_32 71_4way_32to4way_31 69_4way_31to4way_30"/>
    </vehicle>
    <vehicle id="137" depart="97.85">
        <route edges="71_4way_32to4way_31 72_4way_31to4way_38 35_4way_38to3way_45 32_3way_45to3way_44"/>
    </vehicle>
    <vehicle id="138" depart="98.56">
        <route edges="3_3way_1to4way_8 49_4way_8to4way_15 48_4way_15to4way_22 58_4way_22to4way_23"/>
    </vehicle>
    <vehicle id="139" depart="99.27">
        <route edges="13_3way_20to4way_19 55_4way_19to4way_18 53_4way_18to4way_17 50_4way_17to4way_16 47_4way_16to4way_15 9_4way_15to3way_14 7_3way_14to3way_21 14_3way_21to3way_28 18_3way_28to3way_35"/>
    </vehicle>
    <vehicle id="140" depart="99.99">
        <route edges="47_4way_15to4way_16 50_4way_16to4way_17 53_4way_17to4way_18 55_4way_18to4way_19 57_4way_19to4way_26 66_4way_26to4way_33 75_4way_33to4way_40"/>
    </vehicle>
    <vehicle id="141" depart="100.70">
        <route edges="61_4way_30to4way_23 58_4way_23to4way_22"/>
    </vehicle>
    <vehicle id="142" depart="101.42">
        <route edges="13_3way_20to4way_19 55_4way_19to4way_18 53_4way_18to4way_17 50_4way_17to4way_16 47_4way_16to4way_15 9_4way_15to3way_14 7_3way_14to3way_21 14_3way_21to3way_28"/>
    </vehicle>
    <vehicle id="143" depart="102.13">
        <route edges="16_3way_34to3way_27 12_3way_27to3way_20 13_3way_20to4way_19 55_4way_19to4way_18"/>
    </vehicle>
    <vehicle id="144" depart="102.85">
        <route edges="38_3way_47to4way_40 75_4way_40to4way_33 73_4way_33to4way_32 71_4way_32to4way_31 69_4way_31to4way_30 67_4way_30to4way_29"/>
    </vehicle>
    <vehicle id="145" depart="103.56">
        <route edges="73_4way_32to4way_33 66_4way_33to4way_26 57_4way_26to4way_19 46_4way_19to4way_12 39_4way_12to3way_5"/>
    </vehicle>
    <vehicle id="146" depart="104.27">
        <route edges="78_4way_38to4way_39 79_4way_39to4way_40 75_4way_40to4way_33 66_4way_33to4way_26 57_4way_26to4way_19 46_4way_19to4way_12"/>
    </vehicle>
    <vehicle id="147" depart="104.99">
        <route edges="20_3way_4to3way_3 10_3way_3to3way_2 1_3way_2to3way_1 3_3way_1to4way_8 49_4way_8to4way_15 48_4way_15to4way_22 59_4way_22to4way_29 68_4way_29to4way_36 31_4way_36to3way_43"/>
    </vehicle>
    <vehicle id="148" depart="105.70">
        <route edges="36_3way_47to3way_46 34_3way_46to3way_45 32_3way_45to3way_44 30_3way_44to3way_43 24_3way_43to3way_35 18_3way_35to3way_28 14_3way_28to3way_21 7_3way_21to3way_14"/>
    </vehicle>
    <vehicle id="149" depart="106.42">
        <route edges="20_3way_3to3way_4 26_3way_4to3way_5 5_3way_5to3way_13"/>
    </vehicle>
    <vehicle id="150" depart="107.13">
        <route edges="3_3way_1to4way_8 49_4way_8to4way_15 48_4way_15to4way_22 58_4way_22to4way_23 60_4way_23to4way_24"/>
    </vehicle>
    <vehicle id="151" depart="107.84">
        <route edges="13_3way_20to4way_19 55_4way_19to4way_18 53_4way_18to4way_17 54_4way_17to4way_24 63_4way_24to4way_31 72_4way_31to4way_38"/>
    </vehicle>
    <vehicle id="152" depart="108.56">
        <route edges="26_3way_5to3way_4"/>
    </vehicle>
    <vehicle id="153" depart="109.27">
        <route edges="37_3way_46to4way_39 74_4way_39to4way_32 65_4way_32to4way_25 56_4way_25to4way_18 45_4way_18to4way_11 41_4way_11to4way_10"/>
    </vehicle>
    <vehicle id="154" depart="109.99">
        <route edges="80_4way_9to4way_8 40_4way_8to3way_7 8_3way_7to3way_14"/>
    </vehicle>
    <vehicle id="155" depart="110.70">
        <route edges="63_4way_24to4way_31 71_4way_31to4way_32"/>
    </vehicle>
    <vehicle id="156" depart="111.42">
        <route edges="6_3way_13to4way_12 44_4way_12to4way_11 41_4way_11to4way_10 42_4way_10to4way_17 54_4way_17to4way_24 63_4way_24to4way_31 72_4way_31to4way_38 35_4way_38to3way_45"/>
    </vehicle>
    <vehicle id="157" depart="112.13">
        <route edges="33_3way_44to4way_37 70_4way_37to4way_30 61_4way_30to4way_23 51_4way_23to4way_16 52_4way_16to4way_9 11_4way_9to3way_2 10_3way_2to3way_3"/>
    </vehicle>
    <vehicle id="158" depart="112.84">
        <route edges="49_4way_8to4way_15 48_4way_15to4way_22 59_4way_22to4way_29 68_4way_29to4way_36 31_4way_36to3way_43 30_3way_43to3way_44 32_3way_44to3way_45 34_3way_45to3way_46"/>
    </vehicle>
    <vehicle id="159" depart="113.56">
        <route edges="42_4way_17to4way_10"/>
    </vehicle>
    <vehicle id="160" depart="114.27">
        <route edges="14_3way_21to3way_28 18_3way_28to3way_35 24_3way_35to3way_43 30_3way_43to3way_44 32_3way_44to3way_45"/>
    </vehicle>
    <vehicle id="161" depart="114.99">
        <route edges="44_4way_11to4way_12 6_4way_12to3way_13 4_3way_13to3way_20 12_3way_20to3way_27 16_3way_27to3way_34"/>
    </vehicle>
    <vehicle id="162" depart="115.70">
        <route edges="42_4way_17to4way_10 21_4way_10to3way_3"/>
    </vehicle>
    <vehicle id="163" depart="116.42">
        <route edges="78_4way_38to4way_39 74_4way_39to4way_32 65_4way_32to4way_25 56_4way_25to4way_18 45_4way_18to4way_11"/>
    </vehicle>
    <vehicle id="164" depart="117.13">
        <route edges="18_3way_28to3way_35 24_3way_35to3way_43 30_3way_43to3way_44 32_3way_44to3way_45 34_3way_45to3way_46"/>
    </vehicle>
    <vehicle id="165" depart="117.84">
        <route edges="32_3way_45to3way_44 33_3way_44to4way_37 70_4way_37to4way_30 61_4way_30to4way_23 51_4way_23to4way_16"/>
    </vehicle>
    <vehicle id="166" depart="118.56">
        <route edges="23_3way_34to4way_33 73_4way_33to4way_32 71_4way_32to4way_31 69_4way_31to4way_30 67_4way_30to4way_29 19_4way_29to3way_28"/>
    </vehicle>
    <vehicle id="167" depart="119.27">
        <route edges="10_3way_3to3way_2 1_3way_2to3way_1 3_3way_1to4way_8"/>
    </vehicle>
    <vehicle id="168" depart="119.99">
        <route edges="27_3way_4to4way_11"/>
    </vehicle>
    <vehicle id="169" depart="120.70">
        <route edges="33_3way_44to4way_37 70_4way_37to4way_30 67_4way_30to4way_29"/>
    </vehicle>
    <vehicle id="170" depart="121.41">
        <route edges="66_4way_33to4way_26 57_4way_26to4way_19 46_4way_19to4way_12 44_4way_12to4way_11 41_4way_11to4way_10 43_4way_10to4way_9"/>
    </vehicle>
    <vehicle id="171" depart="122.13">
        <route edges="11_3way_2to4way_9 52_4way_9to4way_16 51_4way_16to4way_23 61_4way_23to4way_30 70_4way_30to4way_37"/>
    </vehicle>
    <vehicle id="172" depart="122.84">
        <route edges="48_4way_22to4way_15 49_4way_15to4way_8 40_4way_8to3way_7"/>
    </vehicle>
    <vehicle id="173" depart="123.56">
        <route edges="43_4way_10to4way_9 80_4way_9to4way_8 49_4way_8to4way_15 48_4way_15to4way_22 59_4way_22to4way_29 68_4way_29to4way_36"/>
    </vehicle>
    <vehicle id="174" depart="124.27">
        <route edges="6_3way_13to4way_12 44_4way_12to4way_11 41_4way_11to4way_10 42_4way_10to4way_17 54_4way_17to4way_24 63_4way_24to4way_31 72_4way_31to4way_38 35_4way_38to3way_45"/>