<routes xmlns:xsi="http://www.w3.org/2001/XMLSchema-instance" xsi:noNamespaceSchemaLocation="http://sumo.dlr.de/xsd/routes_file.xsd">
<trip id="0" depart="0.0" fromJunction="4way_24" toJunction="4way_36"/>
<trip id="1" depart="0.7142" fromJunction="4way_36" toJunction="4way_23"/>
<trip id="2" depart="1.4284" fromJunction="4way_37" toJunction="3way_7"/>
<trip id="3" depart="2.1426" fromJunction="4way_12" toJunction="3way_7"/>
<trip id="4" depart="2.8568" fromJunction="3way_21" toJunction="4way_33"/>
<trip id="5" depart="3.5709999999999997" fromJunction="4way_29" toJunction="4way_11"/>
<trip id="6" depart="4.2852" fromJunction="4way_19" toJunction="4way_9"/>
<trip id="7" depart="4.9994" fromJunction="4way_25" toJunction="3way_1"/>
<trip id="8" depart="5.7136" fromJunction="4way_39" toJunction="4way_11"/>
<trip id="9" depart="6.4277999999999995" fromJunction="4way_11" toJunction="4way_40"/>
<trip id="10" depart="7.1419999999999995" fromJunction="4way_11" toJunction="4way_8"/>
<trip id="11" depart="7.856199999999999" fromJunction="4way_30" toJunction="3way_13"/>
<trip id="12" depart="8.5704" fromJunction="4way_26" toJunction="3way_20"/>
<trip id="13" depart="9.2846" fromJunction="3way_14" toJunction="4way_29"/>
<trip id="14" depart="9.9988" fromJunction="4way_38" toJunction="3way_46"/>
<trip id="15" depart="10.713" fromJunction="4way_9" toJunction="4way_8"/>
<trip id="16" depart="11.4272" fromJunction="4way_23" toJunction="3way_1"/>
<trip id="17" depart="12.141399999999999" fromJunction="4way_10" toJunction="4way_26"/>
<trip id="18" depart="12.855599999999999" fromJunction="3way_7" toJunction="3way_28"/>
<trip id="19" depart="13.569799999999999" fromJunction="3way_3" toJunction="4way_17"/>
<trip id="20" depart="14.283999999999999" fromJunction="3way_13" toJunction="3way_41"/>
<trip id="21" depart="14.998199999999999" fromJunction="3way_28" toJunction="3way_43"/>
<trip id="22" depart="15.712399999999999" fromJunction="3way_7" toJunction="4way_9"/>
<trip id="23" depart="16.4266" fromJunction="3way_5" toJunction="4way_40"/>
<trip id="24" depart="17.1408" fromJunction="3way_27" toJunction="3way_41"/>
<trip id="25" depart="17.854999999999997" fromJunction="3way_46" toJunction="4way_37"/>
<trip id="26" depart="18.5692" fromJunction="3way_47" toJunction="4way_8"/>
<trip id="27" depart="19.2834" fromJunction="3way_5" toJunction="3way_27"/>
<trip id="28" depart="19.9976" fromJunction="3way_20" toJunction="4way_37"/>
<trip id="29" depart="20.711799999999997" fromJunction="3way_28" toJunction="3way_34"/>
<trip id="30" depart="21.426" fromJunction="3way_5" toJunction="4way_18"/>
<trip id="31" depart="22.1402" fromJunction="3way_5" toJunction="4way_25"/>
<trip id="32" depart="22.8544" fromJunction="4way_15" toJunction="4way_33"/>
<trip id="33" depart="23.568599999999996" fromJunction="4way_23" toJunction="4way_33"/>
<trip id="34" depart="24.282799999999998" fromJunction="3way_2" toJunction="4way_31"/>
<trip id="35" depart="24.997" fromJunction="3way_13" toJunction="3way_45"/>
<trip id="36" depart="25.711199999999998" fromJunction="3way_13" toJunction="3way_44"/>
<trip id="37" depart="26.425399999999996" fromJunction="3way_14" toJunction="3way_43"/>
<trip id="38" depart="27.139599999999998" fromJunction="4way_17" toJunction="3way_3"/>
<trip id="39" depart="27.8538" fromJunction="3way_46" toJunction="4way_9"/>
<trip id="40" depart="28.567999999999998" fromJunction="3way_5" toJunction="4way_29"/>
<trip id="41" depart="29.282199999999996" fromJunction="4way_19" toJunction="4way_9"/>
<trip id="42" depart="29.996399999999998" fromJunction="4way_10" toJunction="3way_43"/>
<trip id="43" depart="30.7106" fromJunction="4way_24" toJunction="3way_13"/>
<trip id="44" depart="31.424799999999998" fromJunction="3way_34" toJunction="3way_44"/>
<trip id="45" depart="32.138999999999996" fromJunction="3way_1" toJunction="4way_16"/>
<trip id="46" depart="32.8532" fromJunction="3way_1" toJunction="4way_25"/>
<trip id="47" depart="33.5674" fromJunction="3way_45" toJunction="4way_10"/>
<trip id="48" depart="34.2816" fromJunction="4way_33" toJunction="4way_31"/>
<trip id="49" depart="34.995799999999996" fromJunction="4way_9" toJunction="3way_46"/>
<trip id="50" depart="35.709999999999994" fromJunction="4way_9" toJunction="4way_16"/>
<trip id="51" depart="36.4242" fromJunction="4way_26" toJunction="3way_47"/>
<trip id="52" depart="37.1384" fromJunction="4way_32" toJunction="4way_8"/>
<trip id="53" depart="37.852599999999995" fromJunction="3way_44" toJunction="4way_17"/>
<trip id="54" depart="38.5668" fromJunction="3way_21" toJunction="4way_18"/>
<trip id="55" depart="39.281" fromJunction="4way_16" toJunction="4way_39"/>
<trip id="56" depart="39.9952" fromJunction="4way_17" toJunction="4way_39"/>
<trip id="57" depart="40.709399999999995" fromJunction="4way_22" toJunction="4way_24"/>
<trip id="58" depart="41.42359999999999" fromJunction="4way_30" toJunction="4way_33"/>
<trip id="59" depart="42.1378" fromJunction="4way_23" toJunction="3way_7"/>
<trip id="60" depart="42.852" fromJunction="3way_44" toJunction="3way_1"/>
<trip id="61" depart="43.566199999999995" fromJunction="3way_44" toJunction="4way_37"/>
<trip id="62" depart="44.2804" fromJunction="3way_7" toJunction="4way_23"/>
<trip id="63" depart="44.9946" fromJunction="3way_44" toJunction="3way_20"/>
<trip id="64" depart="45.7088" fromJunction="4way_16" toJunction="4way_9"/>
<trip id="65" depart="46.422999999999995" fromJunction="4way_37" toJunction="4way_9"/>
<trip id="66" depart="47.13719999999999" fromJunction="3way_7" toJunction="4way_37"/>
<trip id="67" depart="47.8514" fromJunction="3way_28" toJunction="4way_12"/>
<trip id="68" depart="48.565599999999996" fromJunction="4way_12" toJunction="3way_7"/>
<trip id="69" depart="49.279799999999994" fromJunction="4way_17" toJunction="4way_18"/>
<trip id="70" depart="49.994" fromJunction="4way_19" toJunction="3way_5"/>
<trip id="71" depart="50.7082" fromJunction="4way_40" toJunction="4way_24"/>
<trip id="72" depart="51.422399999999996" fromJunction="4way_39" toJunction="3way_20"/>
<trip id="73" depart="52.136599999999994" fromJunction="4way_23" toJunction="3way_27"/>
<trip id="74" depart="52.85079999999999" fromJunction="4way_32" toJunction="3way_13"/>
<trip id="75" depart="53.565" fromJunction="4way_9" toJunction="4way_18"/>
<trip id="76" depart="54.279199999999996" fromJunction="3way_4" toJunction="3way_14"/>
<trip id="77" depart="54.993399999999994" fromJunction="4way_8" toJunction="4way_17"/>
<trip id="78" depart="55.7076" fromJunction="4way_32" toJunction="4way_24"/>
<trip id="79" depart="56.4218" fromJunction="4way_32" toJunction="4way_33"/>
<trip id="80" depart="57.135999999999996" fromJunction="3way_28" toJunction="3way_1"/>
<trip id="81" depart="57.850199999999994" fromJunction="3way_27" toJunction="4way_24"/>
<trip id="82" depart="58.56439999999999" fromJunction="3way_3" toJunction="4way_29"/>
<trip id="83" depart="59.2786" fromJunction="3way_1" toJunction="3way_34"/>
<trip id="84" depart="59.992799999999995" fromJunction="3way_47" toJunction="4way_11"/>
<trip id="85" depart="60.706999999999994" fromJunction="4way_19" toJunction="3way_35"/>
<trip id="86" depart="61.4212" fromJunction="3way_2" toJunction="4way_17"/>
<trip id="87" depart="62.1354" fromJunction="4way_23" toJunction="3way_27"/>
<trip id="88" depart="62.849599999999995" fromJunction="3way_47" toJunction="4way_9"/>
<trip id="89" depart="63.56379999999999" fromJunction="4way_23" toJunction="4way_26"/>
<trip id="90" depart="64.27799999999999" fromJunction="4way_16" toJunction="4way_36"/>
<trip id="91" depart="64.9922" fromJunction="3way_43" toJunction="4way_24"/>
<trip id="92" depart="65.7064" fromJunction="3way_41" toJunction="3way_21"/>
<trip id="93" depart="66.4206" fromJunction="4way_26" toJunction="3way_34"/>
<trip id="94" depart="67.1348" fromJunction="4way_22" toJunction="4way_31"/>
<trip id="95" depart="67.84899999999999" fromJunction="3way_46" toJunction="3way_47"/>
<trip id="96" depart="68.5632" fromJunction="3way_7" toJunction="3way_3"/>
<trip id="97" depart="69.2774" fromJunction="4way_17" toJunction="3way_43"/>
<trip id="98" depart="69.99159999999999" fromJunction="3way_34" toJunction="3way_28"/>
<trip id="99" depart="70.7058" fromJunction="3way_4" toJunction="3way_2"/>
<trip id="100" depart="71.41999999999999" fromJunction="4way_8" toJunction="4way_10"/>
<trip id="101" depart="72.13419999999999" fromJunction="4way_12" toJunction="4way_36"/>
<trip id="102" depart="72.8484" fromJunction="3way_41" toJunction="4way_40"/>
<trip id="103" depart="73.56259999999999" fromJunction="3way_46" toJunction="4way_37"/>
<trip id="104" depart="74.2768" fromJunction="4way_38" toJunction="3way_1"/>
<trip id="105" depart="74.991" fromJunction="3way_21" toJunction="3way_43"/>
<trip id="106" depart="75.70519999999999" fromJunction="4way_25" toJunction="4way_16"/>
<trip id="107" depart="76.4194" fromJunction="4way_39" toJunction="4way_30"/>
<trip id="108" depart="77.1336" fromJunction="4way_11" toJunction="3way_45"/>
<trip id="109" depart="77.84779999999999" fromJunction="4way_26" toJunction="3way_34"/>
<trip id="110" depart="78.562" fromJunction="3way_41" toJunction="4way_10"/>
<trip id="111" depart="79.27619999999999" fromJunction="4way_24" toJunction="4way_26"/>
<trip id="112" depart="79.9904" fromJunction="3way_41" toJunction="3way_46"/>
<trip id="113" depart="80.7046" fromJunction="3way_2" toJunction="4way_29"/>
<trip id="114" depart="81.41879999999999" fromJunction="3way_7" toJunction="3way_41"/>
<trip id="115" depart="82.133" fromJunction="4way_8" toJunction="3way_28"/>
<trip id="116" depart="82.84719999999999" fromJunction="4way_16" toJunction="3way_45"/>
<trip id="117" depart="83.56139999999999" fromJunction="3way_13" toJunction="4way_32"/>
<trip id="118" depart="84.2756" fromJunction="3way_13" toJunction="4way_29"/>
<trip id="119" depart="84.98979999999999" fromJunction="3way_21" toJunction="4way_24"/>
<trip id="120" depart="85.704" fromJunction="3way_34" toJunction="4way_9"/>
<trip id="121" depart="86.4182" fromJunction="4way_15" toJunction="3way_20"/>
<trip id="122" depart="87.13239999999999" fromJunction="4way_26" toJunction="3way_28"/>
<trip id="123" depart="87.8466" fromJunction="4way_31" toJunction="4way_38"/>
<trip id="124" depart="88.5608" fromJunction="3way_4" toJunction="4way_12"/>
<trip id="125" depart="89.27499999999999" fromJunction="4way_16" toJunction="4way_36"/>
<trip id="126" depart="89.9892" fromJunction="3way_44" toJunction="4way_33"/>
<trip id="127" depart="90.70339999999999" fromJunction="3way_5" toJunction="3way_47"/>
<trip id="128" depart="91.4176" fromJunction="4way_19" toJunction="3way_1"/>
<trip id="129" depart="92.1318" fromJunction="4way_11" toJunction="4way_10"/>
<trip id="130" depart="92.84599999999999" fromJunction="4way_16" toJunction="3way_45"/>
<trip id="131" depart="93.5602" fromJunction="4way_15" toJunction="3way_3"/>
<trip id="132" depart="94.27439999999999" fromJunction="4way_39" toJunction="4way_33"/>
<trip id="133" depart="94.98859999999999" fromJunction="4way_33" toJunction="3way_35"/>
<trip id="134" depart="95.7028" fromJunction="4way_26" toJunction="3way_47"/>
<trip id="135" depart="96.41699999999999" fromJunction="4way_11" toJunction="4way_26"/>
<trip id="136" depart="97.13119999999999" fromJunction="4way_39" toJunction="4way_30"/>
<trip id="137" depart="97.8454" fromJunction="4way_32" toJunction="3way_44"/>
<trip id="138" depart="98.55959999999999" fromJunction="3way_1" toJunction="4way_23"/>
<trip id="139" depart="99.2738" fromJunction="3way_20" toJunction="3way_35"/>
<trip id="140" depart="99.988" fromJunction="4way_15" toJunction="4way_40"/>
<trip id="141" depart="100.70219999999999" fromJunction="4way_30" toJunction="4way_22"/>
<trip id="142" depart="101.4164" fromJunction="3way_20" toJunction="3way_28"/>
<trip id="143" depart="102.13059999999999" fromJunction="3way_34" toJunction="4way_18"/>
<trip id="144" depart="102.84479999999999" fromJunction="3way_47" toJunction="4way_29"/>
<trip id="145" depart="103.559" fromJunction="4way_32" toJunction="3way_5"/>
<trip id="146" depart="104.27319999999999" fromJunction="4way_38" toJunction="4way_12"/>
<trip id="147" depart="104.9874" fromJunction="3way_4" toJunction="3way_43"/>
<trip id="148" depart="105.70159999999998" fromJunction="3way_47" toJunction="3way_14"/>
<trip id="149" depart="106.41579999999999" fromJunction="3way_3" toJunction="3way_13"/>
<trip id="150" depart="107.13" fromJunction="3way_1" toJunction="4way_24"/>
<trip id="151" depart="107.84419999999999" fromJunction="3way_20" toJunction="4way_38"/>
<trip id="152" depart="108.55839999999999" fromJunction="3way_5" toJunction="3way_4"/>
<trip id="153" depart="109.2726" fromJunction="3way_46" toJunction="4way_10"/>
<trip id="154" depart="109.98679999999999" fromJunction="4way_9" toJunction="3way_14"/>
<trip id="155" depart="110.701" fromJunction="4way_24" toJunction="4way_32"/>
<trip id="156" depart="111.4152" fromJunction="3way_13" toJunction="3way_45"/>
<trip id="157" depart="112.12939999999999" fromJunction="3way_44" toJunction="3way_3"/>
<trip id="158" depart="112.8436" fromJunction="4way_8" toJunction="3way_46"/>
<trip id="159" depart="113.55779999999999" fromJunction="4way_17" toJunction="4way_10"/>
<trip id="160" depart="114.27199999999999" fromJunction="3way_21" toJunction="3way_45"/>
<trip id="161" depart="114.9862" fromJunction="4way_11" toJunction="3way_34"/>
<trip id="162" depart="115.70039999999999" fromJunction="4way_17" toJunction="3way_3"/>
<trip id="163" depart="116.4146" fromJunction="4way_38" toJunction="4way_11"/>
<trip id="164" depart="117.12879999999998" fromJunction="3way_28" toJunction="3way_46"/>
<trip id="165" depart="117.84299999999999" fromJunction="3way_45" toJunction="4way_16"/>
<trip id="166" depart="118.5572" fromJunction="3way_34" toJunction="3way_28"/>
<trip id="167" depart="119.27139999999999" fromJunction="3way_3" toJunction="4way_8"/>
<trip id="168" depart="119.98559999999999" fromJunction="3way_4" toJunction="4way_11"/>
<trip id="169" depart="120.6998" fromJunction="3way_44" toJunction="4way_29"/>
<trip id="170" depart="121.41399999999999" fromJunction="4way_33" toJunction="4way_9"/>
<trip id="171" depart="122.12819999999999" fromJunction="3way_2" toJunction="4way_37"/>
<trip id="172" depart="122.8424" fromJunction="4way_22" toJunction="3way_7"/>
<trip id="173" depart="123.55659999999999" fromJunction="4way_10" toJunction="4way_36"/>
<trip id="174" depart="124.2708" fromJunction="3way_13" toJunction="3way_45"/>
<trip id="175" depart="124.98499999999999" fromJunction="4way_33" toJunction="3way_21"/>
<trip id="176" depart="125.69919999999999" fromJunction="4way_12" toJunction="3way_34"/>
<trip id="177" depart="126.4134" fromJunction="4way_8" toJunction="4way_36"/>
<trip id="178" depart="127.12759999999999" fromJunction="4way_8" toJunction="4way_39"/>
<trip id="179" depart="127.84179999999999" fromJunction="3way_21" toJunction="4way_24"/>
<trip id="180" depart="128.55599999999998" fromJunction="4way_17" toJunction="4way_12"/>
<trip id="181" depart="129.2702" fromJunction="3way_43" toJunction="4way_17"/>
<trip id="182" depart="129.9844" fromJunction="4way_30" toJunction="4way_38"/>
<trip id="183" depart="130.6986" fromJunction="3way_27" toJunction="3way_47"/>
<trip id="184" depart="131.4128" fromJunction="4way_33" toJunction="4way_11"/>
<trip id="185" depart="132.12699999999998" fromJunction="4way_16" toJunction="4way_8"/>
<trip id="186" depart="132.8412" fromJunction="4way_8" toJunction="4way_32"/>
<trip id="187" depart="133.5554" fromJunction="4way_9" toJunction="4way_26"/>
<trip id="188" depart="134.2696" fromJunction="4way_12" toJunction="4way_18"/>
<trip id="189" depart="134.9838" fromJunction="3way_27" toJunction="4way_18"/>
<trip id="190" depart="135.69799999999998" fromJunction="3way_21" toJunction="4way_30"/>
<trip id="191" depart="136.41219999999998" fromJunction="3way_7" toJunction="3way_3"/>
<trip id="192" depart="137.1264" fromJunction="4way_32" toJunction="3way_46"/>
<trip id="193" depart="137.8406" fromJunction="4way_33" toJunction="3way_2"/>
<trip id="194" depart="138.5548" fromJunction="3way_28" toJunction="3way_35"/>
<trip id="195" depart="139.26899999999998" fromJunction="3way_34" toJunction="3way_1"/>
<trip id="196" depart="139.98319999999998" fromJunction="4way_19" toJunction="3way_14"/>
<trip id="197" depart="140.6974" fromJunction="4way_26" toJunction="3way_5"/>
<trip id="198" depart="141.4116" fromJunction="4way_8" toJunction="4way_39"/>
<trip id="199" depart="142.1258" fromJunction="3way_47" toJunction="3way_43"/>
<trip id="200" depart="142.83999999999997" fromJunction="3way_2" toJunction="4way_23"/>
<trip id="201" depart="143.55419999999998" fromJunction="3way_7" toJunction="3way_1"/>
<trip id="202" depart="144.26839999999999" fromJunction="3way_46" toJunction="3way_4"/>
<trip id="203" depart="144.9826" fromJunction="3way_46" toJunction="3way_41"/>
<trip id="204" depart="145.6968" fromJunction="3way_1" toJunction="3way_13"/>
<trip id="205" depart="146.411" fromJunction="4way_23" toJunction="3way_13"/>
<trip id="206" depart="147.12519999999998" fromJunction="4way_40" toJunction="4way_33"/>
<trip id="207" depart="147.83939999999998" fromJunction="3way_27" toJunction="3way_14"/>
<trip id="208" depart="148.5536" fromJunction="4way_22" toJunction="4way_30"/>
<trip id="209" depart="149.2678" fromJunction="3way_3" toJunction="4way_40"/>
<trip id="210" depart="149.982" fromJunction="3way_45" toJunction="4way_11"/>
<trip id="211" depart="150.69619999999998" fromJunction="4way_37" toJunction="3way_47"/>
<trip id="212" depart="151.41039999999998" fromJunction="4way_37" toJunction="3way_46"/>
<trip id="213" depart="152.1246" fromJunction="3way_7" toJunction="4way_29"/>
<trip id="214" depart="152.8388" fromJunction="3way_45" toJunction="4way_36"/>
<trip id="215" depart="153.553" fromJunction="3way_14" toJunction="4way_17"/>
<trip id="216" depart="154.2672" fromJunction="4way_25" toJunction="3way_28"/>
<trip id="217" depart="154.98139999999998" fromJunction="3way_3" toJunction="4way_19"/>
<trip id="218" depart="155.69559999999998" fromJunction="3way_35" toJunction="3way_47"/>
<trip id="219" depart="156.4098" fromJunction="4way_40" toJunction="4way_18"/>
<trip id="220" depart="157.124" fromJunction="4way_12" toJunction="4way_33"/>
<trip id="221" depart="157.8382" fromJunction="4way_40" toJunction="3way_44"/>
<trip id="222" depart="158.55239999999998" fromJunction="3way_5" toJunction="3way_46"/>
<trip id="223" depart="159.26659999999998" fromJunction="3way_47" toJunction="4way_26"/>
<trip id="224" depart="159.9808" fromJunction="3way_3" toJunction="4way_17"/>
<trip id="225" depart="160.695" fromJunction="4way_39" toJunction="4way_24"/>
<trip id="226" depart="161.4092" fromJunction="3way_21" toJunction="3way_45"/>
<trip id="227" depart="162.12339999999998" fromJunction="4way_31" toJunction="3way_28"/>
<trip id="228" depart="162.83759999999998" fromJunction="3way_27" toJunction="3way_47"/>
<trip id="229" depart="163.5518" fromJunction="3way_44" toJunction="4way_8"/>
<trip id="230" depart="164.266" fromJunction="3way_47" toJunction="4way_25"/>
<trip id="231" depart="164.9802" fromJunction="4way_26" toJunction="4way_22"/>
<trip id="232" depart="165.69439999999997" fromJunction="4way_39" toJunction="4way_30"/>
<trip id="233" depart="166.40859999999998" fromJunction="4way_31" toJunction="4way_26"/>
<trip id="234" depart="167.12279999999998" fromJunction="4way_33" toJunction="4way_17"/>
<trip id="235" depart="167.837" fromJunction="4way_8" toJunction="4way_40"/>
<trip id="236" depart="168.5512" fromJunction="3way_44" toJunction="3way_4"/>
<trip id="237" depart="169.2654" fromJunction="3way_14" toJunction="3way_20"/>
<trip id="238" depart="169.97959999999998" fromJunction="4way_23" toJunction="3way_13"/>
<trip id="239" depart="170.69379999999998" fromJunction="4way_12" toJunction="3way_21"/>
<trip id="240" depart="171.408" fromJunction="4way_36" toJunction="4way_33"/>
<trip id="241" depart="172.1222" fromJunction="4way_16" toJunction="3way_45"/>
<trip id="242" depart="172.8364" fromJunction="3way_14" toJunction="4way_12"/>
<trip id="243" depart="173.55059999999997" fromJunction="3way_45" toJunction="4way_36"/>
<trip id="244" depart="174.26479999999998" fromJunction="3way_14" toJunction="4way_8"/>
<trip id="245" depart="174.97899999999998" fromJunction="4way_22" toJunction="3way_46"/>
<trip id="246" depart="175.6932" fromJunction="3way_28" toJunction="3way_44"/>
<trip id="247" depart="176.4074" fromJunction="4way_31" toJunction="4way_29"/>
<trip id="248" depart="177.1216" fromJunction="4way_19" toJunction="3way_35"/>
<trip id="249" depart="177.83579999999998" fromJunction="3way_3" toJunction="4way_32"/>
<trip id="250" depart="178.54999999999998" fromJunction="4way_8" toJunction="3way_46"/>
<trip id="251" depart="179.2642" fromJunction="3way_35" toJunction="3way_5"/>
<trip id="252" depart="179.9784" fromJunction="4way_10" toJunction="4way_31"/>
<trip id="253" depart="180.6926" fromJunction="4way_17" toJunction="4way_30"/>
<trip id="254" depart="181.40679999999998" fromJunction="3way_35" toJunction="3way_41"/>
<trip id="255" depart="182.12099999999998" fromJunction="4way_39" toJunction="4way_10"/>
<trip id="256" depart="182.8352" fromJunction="3way_45" toJunction="4way_36"/>
<trip id="257" depart="183.5494" fromJunction="4way_17" toJunction="3way_2"/>
<trip id="258" depart="184.2636" fromJunction="3way_28" toJunction="3way_1"/>
<trip id="259" depart="184.97779999999997" fromJunction="4way_19" toJunction="4way_29"/>
<trip id="260" depart="185.69199999999998" fromJunction="3way_14" toJunction="3way_5"/>
<trip id="261" depart="186.40619999999998" fromJunction="3way_35" toJunction="3way_2"/>
<trip id="262" depart="187.1204" fromJunction="3way_45" toJunction="4way_30"/>
<trip id="263" depart="187.8346" fromJunction="3way_13" toJunction="3way_41"/>
<trip id="264" depart="188.54879999999997" fromJunction="4way_17" toJunction="4way_9"/>
<trip id="265" depart="189.26299999999998" fromJunction="4way_26" toJunction="4way_10"/>
<trip id="266" depart="189.97719999999998" fromJunction="4way_37" toJunction="3way_1"/>
<trip id="267" depart="190.6914" fromJunction="4way_16" toJunction="4way_23"/>
<trip id="268" depart="191.4056" fromJunction="3way_1" toJunction="4way_33"/>
<trip id="269" depart="192.1198" fromJunction="4way_18" toJunction="4way_17"/>
<trip id="270" depart="192.83399999999997" fromJunction="3way_35" toJunction="4way_22"/>
<trip id="271" depart="193.54819999999998" fromJunction="3way_5" toJunction="4way_11"/>
<trip id="272" depart="194.26239999999999" fromJunction="4way_29" toJunction="3way_7"/>
<trip id="273" depart="194.9766" fromJunction="3way_5" toJunction="4way_17"/>
<trip id="274" depart="195.6908" fromJunction="3way_14" toJunction="3way_47"/>
<trip id="275" depart="196.40499999999997" fromJunction="4way_39" toJunction="4way_30"/>
<trip id="276" depart="197.11919999999998" fromJunction="3way_20" toJunction="4way_23"/>
<trip id="277" depart="197.83339999999998" fromJunction="4way_39" toJunction="4way_40"/>
<trip id="278" depart="198.5476" fromJunction="4way_19" toJunction="4way_22"/>
<trip id="279" depart="199.2618" fromJunction="4way_19" toJunction="4way_36"/>
<trip id="280" depart="199.976" fromJunction="4way_33" toJunction="4way_25"/>
<trip id="281" depart="200.69019999999998" fromJunction="3way_2" toJunction="4way_19"/>
<trip id="282" depart="201.40439999999998" fromJunction="3way_21" toJunction="3way_27"/>
<trip id="283" depart="202.1186" fromJunction="3way_44" toJunction="4way_26"/>
<trip id="284" depart="202.8328" fromJunction="4way_39" toJunction="3way_27"/>
<trip id="285" depart="203.547" fromJunction="4way_12" toJunction="4way_8"/>
<trip id="286" depart="204.26119999999997" fromJunction="4way_37" toJunction="3way_27"/>
<trip id="287" depart="204.97539999999998" fromJunction="3way_4" toJunction="3way_7"/>
<trip id="288" depart="205.68959999999998" fromJunction="3way_46" toJunction="4way_17"/>
<trip id="289" depart="206.4038" fromJunction="3way_3" toJunction="3way_2"/>
<trip id="290" depart="207.118" fromJunction="4way_12" toJunction="3way_3"/>
<trip id="291" depart="207.83219999999997" fromJunction="4way_12" toJunction="4way_31"/>
<trip id="292" depart="208.54639999999998" fromJunction="4way_29" toJunction="4way_10"/>
<trip id="293" depart="209.26059999999998" fromJunction="4way_40" toJunction="3way_44"/>
<trip id="294" depart="209.9748" fromJunction="4way_15" toJunction="3way_28"/>
<trip id="295" depart="210.689" fromJunction="4way_40" toJunction="3way_21"/>
<trip id="296" depart="211.40319999999997" fromJunction="3way_43" toJunction="3way_27"/>
<trip id="297" depart="212.11739999999998" fromJunction="3way_3" toJunction="4way_10"/>
<trip id="298" depart="212.83159999999998" fromJunction="4way_15" toJunction="4way_23"/>
<trip id="299" depart="213.54579999999999" fromJunction="3way_47" toJunction="3way_45"/>
<trip id="300" depart="214.26" fromJunction="3way_28" toJunction="4way_29"/>
<trip id="301" depart="214.9742" fromJunction="3way_35" toJunction="4way_8"/>
<trip id="302" depart="215.68839999999997" fromJunction="3way_20" toJunction="4way_33"/>
<trip id="303" depart="216.40259999999998" fromJunction="3way_35" toJunction="3way_5"/>
<trip id="304" depart="217.11679999999998" fromJunction="4way_37" toJunction="4way_16"/>
<trip id="305" depart="217.831" fromJunction="4way_40" toJunction="3way_21"/>
<trip id="306" depart="218.5452" fromJunction="4way_24" toJunction="3way_35"/>
<trip id="307" depart="219.25939999999997" fromJunction="4way_18" toJunction="4way_30"/>
<trip id="308" depart="219.97359999999998" fromJunction="4way_12" toJunction="4way_33"/>
<trip id="309" depart="220.68779999999998" fromJunction="4way_17" toJunction="4way_38"/>
<trip id="310" depart="221.402" fromJunction="3way_20" toJunction="3way_35"/>
<trip id="311" depart="222.1162" fromJunction="3way_47" toJunction="3way_3"/>
<trip id="312" depart="222.8304" fromJunction="4way_29" toJunction="3way_7"/>
<trip id="313" depart="223.54459999999997" fromJunction="4way_33" toJunction="4way_38"/>
<trip id="314" depart="224.25879999999998" fromJunction="3way_5" toJunction="3way_13"/>
<trip id="315" depart="224.97299999999998" fromJunction="4way_31" toJunction="4way_16"/>
<trip id="316" depart="225.6872" fromJunction="4way_26" toJunction="4way_32"/>
<trip id="317" depart="226.4014" fromJunction="3way_21" toJunction="4way_40"/>
<trip id="318" depart="227.11559999999997" fromJunction="3way_20" toJunction="3way_21"/>
<trip id="319" depart="227.82979999999998" fromJunction="4way_37" toJunction="4way_10"/>
<trip id="320" depart="228.54399999999998" fromJunction="3way_5" toJunction="4way_32"/>
<trip id="321" depart="229.2582" fromJunction="4way_16" toJunction="4way_22"/>
<trip id="322" depart="229.9724" fromJunction="3way_27" toJunction="3way_47"/>
<trip id="323" depart="230.68659999999997" fromJunction="3way_3" toJunction="4way_32"/>
<trip id="324" depart="231.40079999999998" fromJunction="3way_13" toJunction="4way_15"/>
<trip id="325" depart="232.11499999999998" fromJunction="4way_40" toJunction="4way_8"/>
<trip id="326" depart="232.8292" fromJunction="4way_32" toJunction="3way_7"/>
<trip id="327" depart="233.5434" fromJunction="3way_45" toJunction="3way_13"/>
<trip id="328" depart="234.25759999999997" fromJunction="3way_21" toJunction="3way_14"/>
<trip id="329" depart="234.97179999999997" fromJunction="3way_35" toJunction="4way_10"/>
<trip id="330" depart="235.68599999999998" fromJunction="4way_30" toJunction="4way_24"/>
<trip id="331" depart="236.40019999999998" fromJunction="3way_7" toJunction="3way_21"/>
<trip id="332" depart="237.1144" fromJunction="3way_4" toJunction="4way_23"/>
<trip id="333" depart="237.8286" fromJunction="4way_37" toJunction="4way_25"/>
<trip id="334" depart="238.54279999999997" fromJunction="4way_36" toJunction="4way_24"/>
<trip id="335" depart="239.25699999999998" fromJunction="3way_14" toJunction="3way_5"/>
<trip id="336" depart="239.97119999999998" fromJunction="3way_43" toJunction="3way_14"/>
<trip id="337" depart="240.6854" fromJunction="4way_31" toJunction="3way_2"/>
<trip id="338" depart="241.3996" fromJunction="4way_23" toJunction="3way_5"/>
<trip id="339" depart="242.11379999999997" fromJunction="4way_30" toJunction="4way_17"/>
<trip id="340" depart="242.82799999999997" fromJunction="3way_5" toJunction="4way_33"/>
<trip id="341" depart="243.54219999999998" fromJunction="3way_2" toJunction="4way_39"/>
<trip id="342" depart="244.25639999999999" fromJunction="3way_14" toJunction="4way_36"/>
<trip id="343" depart="244.9706" fromJunction="3way_28" toJunction="4way_29"/>
<trip id="344" depart="245.6848" fromJunction="3way_1" toJunction="3way_34"/>
<trip id="345" depart="246.39899999999997" fromJunction="4way_25" toJunction="4way_29"/>
<trip id="346" depart="247.11319999999998" fromJunction="3way_47" toJunction="3way_28"/>
<trip id="347" depart="247.82739999999998" fromJunction="3way_5" toJunction="3way_41"/>
<trip id="348" depart="248.5416" fromJunction="3way_3" toJunction="3way_46"/>
<trip id="349" depart="249.2558" fromJunction="4way_32" toJunction="3way_3"/>
<trip id="350" depart="249.96999999999997" fromJunction="4way_9" toJunction="3way_27"/>
<trip id="351" depart="250.68419999999998" fromJunction="4way_8" toJunction="4way_38"/>
<trip id="352" depart="251.39839999999998" fromJunction="3way_34" toJunction="3way_20"/>
<trip id="353" depart="252.1126" fromJunction="4way_29" toJunction="3way_7"/>
<trip id="354" depart="252.8268" fromJunction="4way_11" toJunction="3way_35"/>
<trip id="355" depart="253.54099999999997" fromJunction="4way_19" toJunction="4way_31"/>
<trip id="356" depart="254.25519999999997" fromJunction="4way_12" toJunction="3way_2"/>
<trip id="357" depart="254.96939999999998" fromJunction="4way_39" toJunction="3way_21"/>
<trip id="358" depart="255.68359999999998" fromJunction="4way_40" toJunction="4way_17"/>
<trip id="359" depart="256.39779999999996" fromJunction="3way_28" toJunction="4way_38"/>