<routes xmlns:xsi="http://www.w3.org/2001/XMLSchema-instance" xsi:noNamespaceSchemaLocation="http://sumo.dlr.de/xsd/routes_file.xsd">
<trip id="0" depart="0.0" fromJunction="4way_55" toJunction="4way_53"/>
<trip id="1" depart="0.5" fromJunction="4way_53" toJunction="4way_24"/>
<trip id="2" depart="1.0" fromJunction="4way_74" toJunction="4way_12"/>
<trip id="3" depart="1.5" fromJunction="4way_67" toJunction="4way_32"/>
<trip id="4" depart="2.0" fromJunction="4way_51" toJunction="4way_58"/>
<trip id="5" depart="2.5" fromJunction="4way_33" toJunction="4way_56"/>
<trip id="6" depart="3.0" fromJunction="4way_18" toJunction="4way_73"/>
<trip id="7" depart="3.5" fromJunction="3way_19" toJunction="3way_7"/>
<trip id="8" depart="4.0" fromJunction="4way_86" toJunction="3way_2"/>
<trip id="9" depart="4.5" fromJunction="4way_47" toJunction="4way_36"/>
<trip id="10" depart="5.0" fromJunction="4way_56" toJunction="4way_68"/>
<trip id="11" depart="5.5" fromJunction="4way_36" toJunction="4way_52"/>
<trip id="12" depart="6.0" fromJunction="4way_64" toJunction="3way_49"/>
<trip id="13" depart="6.5" fromJunction="4way_38" toJunction="3way_69"/>
<trip id="14" depart="7.0" fromJunction="4way_81" toJunction="4way_33"/>
<trip id="15" depart="7.5" fromJunction="4way_36" toJunction="3way_70"/>
<trip id="16" depart="8.0" fromJunction="4way_73" toJunction="4way_42"/>
<trip id="17" depart="8.5" fromJunction="4way_44" toJunction="3way_2"/>
<trip id="18" depart="9.0" fromJunction="4way_44" toJunction="4way_34"/>
<trip id="19" depart="9.5" fromJunction="4way_25" toJunction="4way_38"/>
<trip id="20" depart="10.0" fromJunction="4way_22" toJunction="4way_31"/>
<trip id="21" depart="10.5" fromJunction="3way_6" toJunction="4way_35"/>
<trip id="22" depart="11.0" fromJunction="3way_59" toJunction="3way_94"/>
<trip id="23" depart="11.5" fromJunction="4way_31" toJunction="3way_20"/>
<trip id="24" depart="12.0" fromJunction="4way_32" toJunction="4way_73"/>
<trip id="25" depart="12.5" fromJunction="3way_29" toJunction="4way_78"/>
<trip id="26" depart="13.0" fromJunction="3way_89" toJunction="3way_94"/>
<trip id="27" depart="13.5" fromJunction="3way_80" toJunction="4way_74"/>
<trip id="28" depart="14.0" fromJunction="3way_91" toJunction="4way_52"/>
<trip id="29" depart="14.5" fromJunction="3way_39" toJunction="3way_89"/>
<trip id="30" depart="15.0" fromJunction="3way_69" toJunction="4way_84"/>
<trip id="31" depart="15.5" fromJunction="4way_41" toJunction="3way_96"/>
<trip id="32" depart="16.0" fromJunction="3way_29" toJunction="4way_76"/>
<trip id="33" depart="16.5" fromJunction="3way_29" toJunction="4way_17"/>
<trip id="34" depart="17.0" fromJunction="4way_52" toJunction="4way_68"/>
<trip id="35" depart="17.5" fromJunction="4way_34" toJunction="4way_68"/>
<trip id="36" depart="18.0" fromJunction="3way_4" toJunction="4way_75"/>
<trip id="37" depart="18.5" fromJunction="3way_49" toJunction="3way_50"/>
<trip id="38" depart="19.0" fromJunction="3way_49" toJunction="3way_40"/>
<trip id="39" depart="19.5" fromJunction="4way_81" toJunction="3way_20"/>
<trip id="40" depart="20.0" fromJunction="4way_35" toJunction="3way_7"/>
<trip id="41" depart="20.5" fromJunction="3way_70" toJunction="4way_73"/>
<trip id="42" depart="21.0" fromJunction="3way_29" toJunction="4way_33"/>
<trip id="43" depart="21.5" fromJunction="4way_28" toJunction="4way_83"/>
<trip id="44" depart="22.0" fromJunction="4way_15" toJunction="3way_20"/>
<trip id="45" depart="22.5" fromJunction="4way_55" toJunction="3way_59"/>
<trip id="46" depart="23.0" fromJunction="3way_97" toJunction="3way_50"/>
<trip id="47" depart="23.5" fromJunction="3way_2" toJunction="4way_14"/>
<trip id="48" depart="24.0" fromJunction="3way_1" toJunction="4way_86"/>
<trip id="49" depart="24.5" fromJunction="3way_70" toJunction="4way_25"/>
<trip id="50" depart="25.0" fromJunction="4way_58" toJunction="4way_75"/>
<trip id="51" depart="25.5" fromJunction="4way_83" toJunction="3way_91"/>
<trip id="52" depart="26.0" fromJunction="4way_73" toJunction="4way_14"/>
<trip id="53" depart="26.5" fromJunction="4way_48" toJunction="3way_93"/>
<trip id="54" depart="27.0" fromJunction="4way_27" toJunction="4way_32"/>
<trip id="55" depart="27.5" fromJunction="3way_40" toJunction="4way_45"/>
<trip id="56" depart="28.0" fromJunction="4way_71" toJunction="4way_76"/>
<trip id="57" depart="28.5" fromJunction="4way_83" toJunction="4way_57"/>
<trip id="58" depart="29.0" fromJunction="4way_35" toJunction="4way_57"/>
<trip id="59" depart="29.5" fromJunction="4way_13" toJunction="4way_65"/>
<trip id="60" depart="30.0" fromJunction="4way_64" toJunction="4way_48"/>
<trip id="61" depart="30.5" fromJunction="4way_34" toJunction="4way_12"/>
<trip id="62" depart="31.0" fromJunction="3way_40" toJunction="3way_2"/>
<trip id="63" depart="31.5" fromJunction="3way_50" toJunction="4way_84"/>
<trip id="64" depart="32.0" fromJunction="4way_22" toJunction="4way_44"/>
<trip id="65" depart="32.5" fromJunction="3way_40" toJunction="3way_69"/>
<trip id="66" depart="33.0" fromJunction="4way_14" toJunction="4way_73"/>
<trip id="67" depart="33.5" fromJunction="4way_74" toJunction="4way_83"/>
<trip id="68" depart="34.0" fromJunction="4way_22" toJunction="4way_74"/>
<trip id="69" depart="34.5" fromJunction="4way_41" toJunction="4way_77"/>
<trip id="70" depart="35.0" fromJunction="4way_67" toJunction="4way_22"/>
<trip id="71" depart="35.5" fromJunction="4way_45" toJunction="4way_66"/>
<trip id="72" depart="36.0" fromJunction="4way_18" toJunction="3way_29"/>
<trip id="73" depart="36.5" fromJunction="4way_88" toJunction="4way_55"/>
<trip id="74" depart="37.0" fromJunction="4way_47" toJunction="3way_79"/>
<trip id="75" depart="37.5" fromJunction="4way_44" toJunction="3way_89"/>
<trip id="76" depart="38.0" fromJunction="4way_27" toJunction="3way_49"/>
<trip id="77" depart="38.5" fromJunction="4way_73" toJunction="4way_66"/>
<trip id="78" depart="39.0" fromJunction="3way_7" toJunction="4way_81"/>
<trip id="79" depart="39.5" fromJunction="4way_42" toJunction="4way_35"/>
<trip id="80" depart="40.0" fromJunction="4way_47" toJunction="4way_65"/>
<trip id="81" depart="40.5" fromJunction="4way_37" toJunction="4way_68"/>
<trip id="82" depart="41.0" fromJunction="4way_31" toJunction="3way_2"/>
<trip id="83" depart="41.5" fromJunction="3way_98" toJunction="4way_75"/>
<trip id="84" depart="42.0" fromJunction="3way_6" toJunction="4way_33"/>
<trip id="85" depart="42.5" fromJunction="3way_2" toJunction="3way_95"/>
<trip id="86" depart="43.0" fromJunction="3way_93" toJunction="4way_56"/>
<trip id="87" depart="43.5" fromJunction="4way_28" toJunction="4way_21"/>
<trip id="88" depart="44.0" fromJunction="3way_4" toJunction="4way_45"/>
<trip id="89" depart="44.5" fromJunction="4way_44" toJunction="3way_89"/>
<trip id="90" depart="45.0" fromJunction="3way_92" toJunction="4way_83"/>
<trip id="91" depart="45.5" fromJunction="4way_34" toJunction="4way_28"/>
<trip id="92" depart="46.0" fromJunction="4way_14" toJunction="4way_43"/>
<trip id="93" depart="46.5" fromJunction="3way_30" toJunction="4way_75"/>
<trip id="94" depart="47.0" fromJunction="3way_94" toJunction="4way_71"/>
<trip id="95" depart="47.5" fromJunction="4way_38" toJunction="3way_97"/>
<trip id="96" depart="48.0" fromJunction="4way_82" toJunction="4way_75"/>
<trip id="97" depart="48.5" fromJunction="3way_80" toJunction="3way_93"/>
<trip id="98" depart="49.0" fromJunction="4way_22" toJunction="3way_6"/>
<trip id="99" depart="49.5" fromJunction="4way_35" toJunction="3way_30"/>
<trip id="100" depart="50.0" fromJunction="3way_97" toJunction="4way_51"/>
<trip id="101" depart="50.5" fromJunction="3way_7" toJunction="3way_3"/>
<trip id="102" depart="51.0" fromJunction="4way_42" toJunction="4way_25"/>
<trip id="103" depart="51.5" fromJunction="4way_77" toJunction="4way_43"/>
<trip id="104" depart="52.0" fromJunction="3way_94" toJunction="4way_88"/>
<trip id="105" depart="52.5" fromJunction="3way_70" toJunction="4way_84"/>
<trip id="106" depart="53.0" fromJunction="4way_16" toJunction="3way_2"/>
<trip id="107" depart="53.5" fromJunction="4way_51" toJunction="3way_20"/>
<trip id="108" depart="54.0" fromJunction="4way_86" toJunction="4way_14"/>
<trip id="109" depart="54.5" fromJunction="4way_47" toJunction="4way_54"/>
<trip id="110" depart="55.0" fromJunction="4way_56" toJunction="3way_60"/>
<trip id="111" depart="55.5" fromJunction="4way_48" toJunction="3way_97"/>
<trip id="112" depart="56.0" fromJunction="3way_94" toJunction="4way_25"/>
<trip id="113" depart="56.5" fromJunction="4way_75" toJunction="4way_38"/>
<trip id="114" depart="57.0" fromJunction="3way_94" toJunction="3way_80"/>
<trip id="115" depart="57.5" fromJunction="3way_3" toJunction="4way_23"/>
<trip id="116" depart="58.0" fromJunction="4way_12" toJunction="3way_95"/>
<trip id="117" depart="58.5" fromJunction="4way_52" toJunction="4way_41"/>
<trip id="118" depart="59.0" fromJunction="4way_14" toJunction="3way_60"/>
<trip id="119" depart="59.5" fromJunction="3way_49" toJunction="4way_37"/>
<trip id="120" depart="60.0" fromJunction="3way_59" toJunction="4way_23"/>
<trip id="121" depart="60.5" fromJunction="4way_71" toJunction="4way_55"/>
<trip id="122" depart="61.0" fromJunction="3way_97" toJunction="4way_73"/>
<trip id="123" depart="61.5" fromJunction="4way_72" toJunction="3way_69"/>
<trip id="124" depart="62.0" fromJunction="4way_38" toJunction="4way_31"/>
<trip id="125" depart="62.5" fromJunction="4way_85" toJunction="4way_26"/>
<trip id="126" depart="63.0" fromJunction="3way_19" toJunction="4way_77"/>
<trip id="127" depart="63.5" fromJunction="4way_14" toJunction="4way_63"/>
<trip id="128" depart="64.0" fromJunction="3way_40" toJunction="4way_58"/>
<trip id="129" depart="64.5" fromJunction="3way_29" toJunction="3way_91"/>
<trip id="130" depart="65.0" fromJunction="4way_28" toJunction="3way_2"/>
<trip id="131" depart="65.5" fromJunction="4way_46" toJunction="4way_15"/>
<trip id="132" depart="66.0" fromJunction="4way_14" toJunction="3way_50"/>
<trip id="133" depart="66.5" fromJunction="4way_72" toJunction="3way_7"/>
<trip id="134" depart="67.0" fromJunction="4way_57" toJunction="4way_68"/>
<trip id="135" depart="67.5" fromJunction="4way_58" toJunction="4way_11"/>
<trip id="136" depart="68.0" fromJunction="4way_48" toJunction="3way_92"/>
<trip id="137" depart="68.5" fromJunction="4way_56" toJunction="4way_38"/>
<trip id="138" depart="69.0" fromJunction="4way_47" toJunction="4way_54"/>
<trip id="139" depart="69.5" fromJunction="4way_27" toJunction="3way_40"/>
<trip id="140" depart="70.0" fromJunction="3way_2" toJunction="4way_44"/>
<trip id="141" depart="70.5" fromJunction="3way_79" toJunction="4way_21"/>
<trip id="142" depart="71.0" fromJunction="4way_62" toJunction="4way_78"/>
<trip id="143" depart="71.5" fromJunction="4way_64" toJunction="4way_82"/>
<trip id="144" depart="72.0" fromJunction="3way_69" toJunction="4way_41"/>
<trip id="145" depart="72.5" fromJunction="3way_96" toJunction="4way_76"/>
<trip id="146" depart="73.0" fromJunction="3way_93" toJunction="4way_23"/>
<trip id="147" depart="73.5" fromJunction="4way_37" toJunction="3way_29"/>
<trip id="148" depart="74.0" fromJunction="4way_58" toJunction="4way_68"/>
<trip id="149" depart="74.5" fromJunction="4way_36" toJunction="4way_87"/>
<trip id="150" depart="75.0" fromJunction="3way_8" toJunction="3way_10"/>
<trip id="151" depart="75.5" fromJunction="3way_92" toJunction="4way_81"/>
<trip id="152" depart="76.0" fromJunction="3way_6" toJunction="3way_59"/>
<trip id="153" depart="76.5" fromJunction="3way_2" toJunction="4way_65"/>
<trip id="154" depart="77.0" fromJunction="3way_79" toJunction="4way_26"/>
<trip id="155" depart="77.5" fromJunction="3way_19" toJunction="3way_8"/>
<trip id="156" depart="78.0" fromJunction="3way_91" toJunction="4way_15"/>
<trip id="157" depart="78.5" fromJunction="4way_63" toJunction="4way_12"/>
<trip id="158" depart="79.0" fromJunction="4way_65" toJunction="4way_37"/>
<trip id="159" depart="79.5" fromJunction="3way_59" toJunction="3way_70"/>
<trip id="160" depart="80.0" fromJunction="3way_40" toJunction="3way_6"/>
<trip id="161" depart="80.5" fromJunction="4way_42" toJunction="3way_70"/>
<trip id="162" depart="81.0" fromJunction="4way_35" toJunction="4way_25"/>
<trip id="163" depart="81.5" fromJunction="4way_51" toJunction="3way_50"/>
<trip id="164" depart="82.0" fromJunction="4way_46" toJunction="3way_97"/>
<trip id="165" depart="82.5" fromJunction="4way_35" toJunction="3way_6"/>
<trip id="166" depart="83.0" fromJunction="4way_41" toJunction="3way_80"/>
<trip id="167" depart="83.5" fromJunction="3way_60" toJunction="4way_14"/>
<trip id="168" depart="84.0" fromJunction="3way_96" toJunction="4way_41"/>
<trip id="169" depart="84.5" fromJunction="3way_5" toJunction="4way_52"/>
<trip id="170" depart="85.0" fromJunction="3way_8" toJunction="4way_56"/>
<trip id="171" depart="85.5" fromJunction="3way_30" toJunction="4way_23"/>
<trip id="172" depart="86.0" fromJunction="4way_58" toJunction="4way_83"/>
<trip id="173" depart="86.5" fromJunction="3way_4" toJunction="4way_64"/>
<trip id="174" depart="87.0" fromJunction="4way_13" toJunction="4way_22"/>
<trip id="175" depart="87.5" fromJunction="4way_25" toJunction="4way_43"/>
<trip id="176" depart="88.0" fromJunction="3way_59" toJunction="3way_60"/>
<trip id="177" depart="88.5" fromJunction="4way_48" toJunction="4way_61"/>
<trip id="178" depart="89.0" fromJunction="4way_77" toJunction="3way_97"/>
<trip id="179" depart="89.5" fromJunction="4way_42" toJunction="4way_53"/>
<trip id="180" depart="90.0" fromJunction="4way_52" toJunction="4way_57"/>
<trip id="181" depart="90.5" fromJunction="4way_71" toJunction="4way_65"/>
<trip id="182" depart="91.0" fromJunction="4way_35" toJunction="4way_77"/>
<trip id="183" depart="91.5" fromJunction="3way_10" toJunction="4way_45"/>
<trip id="184" depart="92.0" fromJunction="4way_64" toJunction="4way_16"/>
<trip id="185" depart="92.5" fromJunction="3way_89" toJunction="3way_91"/>
<trip id="186" depart="93.0" fromJunction="4way_58" toJunction="4way_56"/>
<trip id="187" depart="93.5" fromJunction="4way_14" toJunction="4way_42"/>
<trip id="188" depart="94.0" fromJunction="4way_42" toJunction="4way_37"/>
<trip id="189" depart="94.5" fromJunction="4way_83" toJunction="4way_48"/>
<trip id="190" depart="95.0" fromJunction="4way_87" toJunction="4way_76"/>
<trip id="191" depart="95.5" fromJunction="3way_89" toJunction="4way_76"/>
<trip id="192" depart="96.0" fromJunction="4way_71" toJunction="4way_54"/>
<trip id="193" depart="96.5" fromJunction="4way_12" toJunction="3way_7"/>
<trip id="194" depart="97.0" fromJunction="4way_27" toJunction="3way_80"/>
<trip id="195" depart="97.5" fromJunction="4way_58" toJunction="3way_4"/>
<trip id="196" depart="98.0" fromJunction="3way_97" toJunction="3way_2"/>
<trip id="197" depart="98.5" fromJunction="4way_28" toJunction="4way_71"/>
<trip id="198" depart="99.0" fromJunction="4way_38" toJunction="3way_29"/>
<trip id="199" depart="99.5" fromJunction="4way_42" toJunction="4way_47"/>
<trip id="200" depart="100.0" fromJunction="3way_92" toJunction="3way_10"/>
<trip id="201" depart="100.5" fromJunction="3way_4" toJunction="4way_34"/>
<trip id="202" depart="101.0" fromJunction="4way_22" toJunction="3way_2"/>
<trip id="203" depart="101.5" fromJunction="3way_80" toJunction="3way_7"/>
<trip id="204" depart="102.0" fromJunction="3way_80" toJunction="3way_93"/>
<trip id="205" depart="102.5" fromJunction="3way_2" toJunction="3way_59"/>
<trip id="206" depart="103.0" fromJunction="4way_44" toJunction="3way_49"/>
<trip id="207" depart="103.5" fromJunction="4way_88" toJunction="4way_68"/>
<trip id="208" depart="104.0" fromJunction="3way_89" toJunction="4way_81"/>
<trip id="209" depart="104.5" fromJunction="4way_82" toJunction="4way_64"/>
<trip id="210" depart="105.0" fromJunction="3way_7" toJunction="4way_78"/>
<trip id="211" depart="105.5" fromJunction="3way_50" toJunction="4way_46"/>
<trip id="212" depart="106.0" fromJunction="4way_84" toJunction="3way_91"/>
<trip id="213" depart="106.5" fromJunction="4way_84" toJunction="3way_91"/>
<trip id="214" depart="107.0" fromJunction="4way_12" toJunction="4way_23"/>
<trip id="215" depart="107.5" fromJunction="3way_50" toJunction="4way_63"/>
<trip id="216" depart="108.0" fromJunction="4way_81" toJunction="4way_45"/>
<trip id="217" depart="108.5" fromJunction="4way_86" toJunction="4way_31"/>
<trip id="218" depart="109.0" fromJunction="3way_5" toJunction="4way_18"/>
<trip id="219" depart="109.5" fromJunction="4way_21" toJunction="3way_92"/>
<trip id="220" depart="110.0" fromJunction="4way_78" toJunction="4way_76"/>
<trip id="221" depart="110.5" fromJunction="4way_77" toJunction="4way_68"/>
<trip id="222" depart="111.0" fromJunction="4way_88" toJunction="3way_40"/>
<trip id="223" depart="111.5" fromJunction="3way_39" toJunction="3way_91"/>
<trip id="224" depart="112.0" fromJunction="3way_92" toJunction="4way_48"/>
<trip id="225" depart="112.5" fromJunction="3way_6" toJunction="4way_35"/>
<trip id="226" depart="113.0" fromJunction="4way_57" toJunction="4way_75"/>
<trip id="227" depart="113.5" fromJunction="4way_51" toJunction="3way_60"/>
<trip id="228" depart="114.0" fromJunction="4way_85" toJunction="4way_41"/>
<trip id="229" depart="114.5" fromJunction="3way_98" toJunction="3way_92"/>
<trip id="230" depart="115.0" fromJunction="3way_30" toJunction="4way_42"/>
<trip id="231" depart="115.5" fromJunction="3way_92" toJunction="4way_17"/>
<trip id="232" depart="116.0" fromJunction="4way_38" toJunction="4way_13"/>
<trip id="233" depart="116.5" fromJunction="4way_47" toJunction="4way_54"/>
<trip id="234" depart="117.0" fromJunction="4way_16" toJunction="4way_38"/>
<trip id="235" depart="117.5" fromJunction="4way_58" toJunction="4way_45"/>
<trip id="236" depart="118.0" fromJunction="4way_42" toJunction="4way_88"/>
<trip id="237" depart="118.5" fromJunction="3way_40" toJunction="3way_7"/>
<trip id="238" depart="119.0" fromJunction="4way_12" toJunction="3way_79"/>
<trip id="239" depart="119.5" fromJunction="4way_24" toJunction="3way_59"/>
<trip id="240" depart="120.0" fromJunction="4way_67" toJunction="4way_51"/>
<trip id="241" depart="120.5" fromJunction="4way_53" toJunction="4way_58"/>
<trip id="242" depart="121.0" fromJunction="4way_14" toJunction="3way_60"/>
<trip id="243" depart="121.5" fromJunction="4way_81" toJunction="4way_77"/>
<trip id="244" depart="122.0" fromJunction="3way_60" toJunction="4way_53"/>
<trip id="245" depart="122.5" fromJunction="4way_71" toJunction="4way_42"/>
<trip id="246" depart="123.0" fromJunction="4way_13" toJunction="3way_91"/>
<trip id="247" depart="123.5" fromJunction="4way_41" toJunction="3way_30"/>
<trip id="248" depart="124.0" fromJunction="4way_16" toJunction="4way_33"/>
<trip id="249" depart="124.5" fromJunction="4way_18" toJunction="4way_11"/>
<trip id="250" depart="125.0" fromJunction="3way_5" toJunction="4way_37"/>
<trip id="251" depart="125.5" fromJunction="4way_32" toJunction="3way_80"/>
<trip id="252" depart="126.0" fromJunction="4way_21" toJunction="3way_39"/>
<trip id="253" depart="126.5" fromJunction="4way_25" toJunction="4way_85"/>
<trip id="254" depart="127.0" fromJunction="4way_55" toJunction="4way_44"/>
<trip id="255" depart="127.5" fromJunction="4way_11" toJunction="3way_95"/>
<trip id="256" depart="128.0" fromJunction="4way_57" toJunction="4way_15"/>
<trip id="257" depart="128.5" fromJunction="3way_50" toJunction="4way_53"/>
<trip id="258" depart="129.0" fromJunction="4way_55" toJunction="3way_3"/>
<trip id="259" depart="129.5" fromJunction="4way_41" toJunction="3way_1"/>
<trip id="260" depart="130.0" fromJunction="4way_18" toJunction="4way_33"/>
<trip id="261" depart="130.5" fromJunction="4way_71" toJunction="3way_19"/>
<trip id="262" depart="131.0" fromJunction="4way_11" toJunction="3way_3"/>
<trip id="263" depart="131.5" fromJunction="3way_60" toJunction="4way_44"/>
<trip id="264" depart="132.0" fromJunction="3way_49" toJunction="3way_94"/>
<trip id="265" depart="132.5" fromJunction="4way_35" toJunction="4way_83"/>
<trip id="266" depart="133.0" fromJunction="4way_48" toJunction="4way_15"/>
<trip id="267" depart="133.5" fromJunction="4way_74" toJunction="3way_1"/>
<trip id="268" depart="134.0" fromJunction="4way_14" toJunction="4way_24"/>
<trip id="269" depart="134.5" fromJunction="3way_2" toJunction="4way_58"/>
<trip id="270" depart="135.0" fromJunction="4way_76" toJunction="4way_35"/>
<trip id="271" depart="135.5" fromJunction="4way_11" toJunction="4way_13"/>
<trip id="272" depart="136.0" fromJunction="3way_29" toJunction="4way_46"/>
<trip id="273" depart="136.5" fromJunction="4way_23" toJunction="4way_32"/>
<trip id="274" depart="137.0" fromJunction="3way_19" toJunction="4way_35"/>
<trip id="275" depart="137.5" fromJunction="4way_81" toJunction="3way_93"/>
<trip id="276" depart="138.0" fromJunction="4way_67" toJunction="4way_44"/>
<trip id="277" depart="138.5" fromJunction="3way_59" toJunction="4way_44"/>
<trip id="278" depart="139.0" fromJunction="4way_47" toJunction="4way_78"/>
<trip id="279" depart="139.5" fromJunction="4way_18" toJunction="4way_13"/>
<trip id="280" depart="140.0" fromJunction="4way_18" toJunction="4way_43"/>
<trip id="281" depart="140.5" fromJunction="4way_58" toJunction="4way_86"/>
<trip id="282" depart="141.0" fromJunction="3way_4" toJunction="4way_18"/>
<trip id="283" depart="141.5" fromJunction="4way_61" toJunction="3way_98"/>
<trip id="284" depart="142.0" fromJunction="3way_40" toJunction="4way_48"/>
<trip id="285" depart="142.5" fromJunction="4way_67" toJunction="3way_89"/>
<trip id="286" depart="143.0" fromJunction="4way_87" toJunction="4way_32"/>
<trip id="287" depart="143.5" fromJunction="4way_84" toJunction="3way_89"/>
<trip id="288" depart="144.0" fromJunction="3way_8" toJunction="4way_32"/>
<trip id="289" depart="144.5" fromJunction="3way_91" toJunction="4way_35"/>
<trip id="290" depart="145.0" fromJunction="3way_6" toJunction="3way_4"/>
<trip id="291" depart="145.5" fromJunction="4way_87" toJunction="3way_6"/>
<trip id="292" depart="146.0" fromJunction="4way_77" toJunction="4way_85"/>
<trip id="293" depart="146.5" fromJunction="4way_33" toJunction="4way_15"/>
<trip id="294" depart="147.0" fromJunction="4way_88" toJunction="3way_30"/>
<trip id="295" depart="147.5" fromJunction="4way_62" toJunction="4way_31"/>
<trip id="296" depart="148.0" fromJunction="4way_78" toJunction="4way_51"/>
<trip id="297" depart="148.5" fromJunction="3way_10" toJunction="3way_98"/>
<trip id="298" depart="149.0" fromJunction="3way_7" toJunction="4way_25"/>
<trip id="299" depart="149.5" fromJunction="4way_62" toJunction="4way_34"/>
<trip id="300" depart="150.0" fromJunction="3way_92" toJunction="3way_50"/>
<trip id="301" depart="150.5" fromJunction="4way_41" toJunction="4way_23"/>
<trip id="302" depart="151.0" fromJunction="4way_11" toJunction="4way_42"/>
<trip id="303" depart="151.5" fromJunction="3way_59" toJunction="4way_68"/>
<trip id="304" depart="152.0" fromJunction="4way_11" toJunction="3way_29"/>
<trip id="305" depart="152.5" fromJunction="4way_84" toJunction="4way_14"/>
<trip id="306" depart="153.0" fromJunction="4way_88" toJunction="4way_71"/>
<trip id="307" depart="153.5" fromJunction="4way_65" toJunction="4way_21"/>
<trip id="308" depart="154.0" fromJunction="4way_76" toJunction="4way_64"/>
<trip id="309" depart="154.5" fromJunction="4way_67" toJunction="4way_68"/>
<trip id="310" depart="155.0" fromJunction="4way_45" toJunction="4way_26"/>
<trip id="311" depart="155.5" fromJunction="3way_79" toJunction="4way_11"/>
<trip id="312" depart="156.0" fromJunction="3way_91" toJunction="3way_7"/>
<trip id="313" depart="156.5" fromJunction="4way_33" toJunction="4way_22"/>
<trip id="314" depart="157.0" fromJunction="4way_58" toJunction="4way_36"/>
<trip id="315" depart="157.5" fromJunction="3way_39" toJunction="3way_49"/>
<trip id="316" depart="158.0" fromJunction="4way_85" toJunction="4way_14"/>
<trip id="317" depart="158.5" fromJunction="4way_28" toJunction="4way_27"/>
<trip id="318" depart="159.0" fromJunction="4way_71" toJunction="4way_78"/>
<trip id="319" depart="159.5" fromJunction="3way_79" toJunction="4way_51"/>
<trip id="320" depart="160.0" fromJunction="4way_84" toJunction="4way_25"/>
<trip id="321" depart="160.5" fromJunction="3way_29" toJunction="4way_37"/>
<trip id="322" depart="161.0" fromJunction="4way_83" toJunction="4way_82"/>
<trip id="323" depart="161.5" fromJunction="3way_98" toJunction="3way_91"/>
<trip id="324" depart="162.0" fromJunction="3way_6" toJunction="4way_37"/>
<trip id="325" depart="162.5" fromJunction="3way_49" toJunction="4way_62"/>
<trip id="326" depart="163.0" fromJunction="4way_78" toJunction="4way_42"/>
<trip id="327" depart="163.5" fromJunction="4way_37" toJunction="4way_12"/>
<trip id="328" depart="164.0" fromJunction="3way_60" toJunction="3way_49"/>
<trip id="329" depart="164.5" fromJunction="4way_21" toJunction="4way_15"/>
<trip id="330" depart="165.0" fromJunction="4way_64" toJunction="4way_55"/>
<trip id="331" depart="165.5" fromJunction="4way_22" toJunction="4way_71"/>
<trip id="332" depart="166.0" fromJunction="3way_7" toJunction="4way_34"/>
<trip id="333" depart="166.5" fromJunction="4way_74" toJunction="4way_76"/>
<trip id="334" depart="167.0" fromJunction="4way_43" toJunction="4way_65"/>
<trip id="335" depart="167.5" fromJunction="4way_71" toJunction="3way_39"/>
<trip id="336" depart="168.0" fromJunction="3way_20" toJunction="4way_71"/>
<trip id="337" depart="168.5" fromJunction="4way_75" toJunction="3way_3"/>
<trip id="338" depart="169.0" fromJunction="4way_34" toJunction="3way_39"/>
<trip id="339" depart="169.5" fromJunction="4way_54" toJunction="4way_45"/>
<trip id="340" depart="170.0" fromJunction="3way_29" toJunction="4way_58"/>
<trip id="341" depart="170.5" fromJunction="3way_3" toJunction="4way_47"/>
<trip id="342" depart="171.0" fromJunction="4way_71" toJunction="4way_43"/>
<trip id="343" depart="171.5" fromJunction="4way_41" toJunction="4way_33"/>
<trip id="344" depart="172.0" fromJunction="3way_2" toJunction="3way_96"/>
<trip id="345" depart="172.5" fromJunction="4way_17" toJunction="4way_23"/>
<trip id="346" depart="173.0" fromJunction="3way_93" toJunction="4way_41"/>
<trip id="347" depart="173.5" fromJunction="3way_19" toJunction="3way_8"/>
<trip id="348" depart="174.0" fromJunction="3way_29" toJunction="3way_93"/>
<trip id="349" depart="174.5" fromJunction="3way_7" toJunction="3way_70"/>
<trip id="350" depart="175.0" fromJunction="4way_37" toJunction="3way_7"/>
<trip id="351" depart="175.5" fromJunction="4way_63" toJunction="3way_89"/>
<trip id="352" depart="176.0" fromJunction="4way_42" toJunction="4way_36"/>
<trip id="353" depart="176.5" fromJunction="3way_95" toJunction="3way_79"/>
<trip id="354" depart="177.0" fromJunction="4way_33" toJunction="4way_22"/>
<trip id="355" depart="177.5" fromJunction="4way_46" toJunction="4way_21"/>
<trip id="356" depart="178.0" fromJunction="4way_28" toJunction="4way_16"/>
<trip id="357" depart="178.5" fromJunction="4way_67" toJunction="3way_3"/>
<trip id="358" depart="179.0" fromJunction="4way_57" toJunction="4way_61"/>
<trip id="359" depart="179.5" fromJunction="4way_78" toJunction="4way_35"/>
<trip id="360" depart="180.0" fromJunction="4way_31" toJunction="4way_16"/>
<trip id="361" depart="180.5" fromJunction="4way_51" toJunction="4way_13"/>
<trip id="362" depart="181.0" fromJunction="3way_70" toJunction="4way_41"/>
<trip id="363" depart="181.5" fromJunction="4way_25" toJunction="4way_82"/>
<trip id="364" depart="182.0" fromJunction="4way_33" toJunction="3way_60"/>
<trip id="365" depart="182.5" fromJunction="3way_89" toJunction="3way_49"/>
<trip id="366" depart="183.0" fromJunction="4way_68" toJunction="3way_5"/>
<trip id="367" depart="183.5" fromJunction="3way_97" toJunction="3way_1"/>
<trip id="368" depart="184.0" fromJunction="3way_8" toJunction="4way_34"/>
<trip id="369" depart="184.5" fromJunction="4way_65" toJunction="4way_57"/>
<trip id="370" depart="185.0" fromJunction="4way_13" toJunction="4way_58"/>
<trip id="371" depart="185.5" fromJunction="4way_53" toJunction="3way_40"/>
<trip id="372" depart="186.0" fromJunction="4way_23" toJunction="4way_28"/>
<trip id="373" depart="186.5" fromJunction="4way_57" toJunction="3way_70"/>
<trip id="374" depart="187.0" fromJunction="3way_1" toJunction="4way_41"/>
<trip id="375" depart="187.5" fromJunction="3way_20" toJunction="3way_91"/>
<trip id="376" depart="188.0" fromJunction="4way_52" toJunction="4way_37"/>
<trip id="377" depart="188.5" fromJunction="4way_11" toJunction="4way_32"/>
<trip id="378" depart="189.0" fromJunction="4way_38" toJunction="4way_57"/>
<trip id="379" depart="189.5" fromJunction="4way_51" toJunction="4way_88"/>
<trip id="380" depart="190.0" fromJunction="4way_56" toJunction="4way_58"/>
<trip id="381" depart="190.5" fromJunction="3way_91" toJunction="4way_15"/>
<trip id="382" depart="191.0" fromJunction="3way_89" toJunction="3way_94"/>
<trip id="383" depart="191.5" fromJunction="3way_40" toJunction="4way_18"/>
<trip id="384" depart="192.0" fromJunction="4way_82" toJunction="4way_42"/>
<trip id="385" depart="192.5" fromJunction="4way_27" toJunction="4way_36"/>
<trip id="386" depart="193.0" fromJunction="4way_12" toJunction="3way_69"/>
<trip id="387" depart="193.5" fromJunction="4way_76" toJunction="4way_17"/>
<trip id="388" depart="194.0" fromJunction="3way_89" toJunction="3way_29"/>
<trip id="389" depart="194.5" fromJunction="3way_8" toJunction="3way_30"/>
<trip id="390" depart="195.0" fromJunction="3way_39" toJunction="4way_12"/>
<trip id="391" depart="195.5" fromJunction="3way_91" toJunction="4way_73"/>
<trip id="392" depart="196.0" fromJunction="3way_49" toJunction="4way_24"/>
<trip id="393" depart="196.5" fromJunction="4way_28" toJunction="4way_68"/>
<trip id="394" depart="197.0" fromJunction="3way_91" toJunction="4way_61"/>
<trip id="395" depart="197.5" fromJunction="4way_72" toJunction="3way_80"/>
<trip id="396" depart="198.0" fromJunction="4way_64" toJunction="3way_4"/>
<trip id="397" depart="198.5" fromJunction="4way_51" toJunction="4way_81"/>