<?xml version="1.0" encoding="UTF-8"?>
<edges xmlns:xsi="http://www.w3.org/2001/XMLSchema-instance" xsi:noNamespaceSchemaLocation="http://sumo.dlr.de/xsd/edges_file.xsd">
    <edge from="3way_A04" id="1_3way_A04to3way_A05" to="3way_A05" spreadType="roadCenter" numLanes="1" priority="1"/>
    <edge from="3way_A05" id="1_3way_A05to3way_A04" to="3way_A04" spreadType="roadCenter" numLanes="1" priority="1"/>
    <edge from="3way_A04" id="2_3way_A04to3way_B03" to="3way_B03" spreadType="roadCenter" numLanes="1" priority="0" shape="400.00,0.00 300.00,0.00 300.00,-100.00"/>
    <edge from="3way_B03" id="2_3way_B03to3way_A04" to="3way_A04" spreadType="roadCenter" numLanes="1" priority="0" shape="300.00,-100.00 300.00,0.00 400.00,0.00"/>
    <edge from="3way_A04" id="3_3way_A04to4way_B04" to="4way_B04" spreadType="roadCenter" numLanes="1" priority="0"/>
    <edge from="4way_B04" id="3_4way_B04to3way_A04" to="3way_A04" spreadType="roadCenter" numLanes="1" priority="0"/>
    <edge from="3way_A05" id="4_3way_A05to3way_A06" to="3way_A06" spreadType="roadCenter" numLanes="1" priority="1"/>
    <edge from="3way_A06" id="4_3way_A06to3way_A05" to="3way_A05" spreadType="roadCenter" numLanes="1" priority="1"/>
    <edge from="3way_A05" id="5_3way_A05to3way_B05" to="3way_B05" spreadType="roadCenter" numLanes="1" priority="0"/>
    <edge from="3way_B05" id="5_3way_B05to3way_A05" to="3way_A05" spreadType="roadCenter" numLanes="1" priority="0"/>
    <edge from="3way_A06" id="6_3way_A06to3way_A07" to="3way_A07" spreadType="roadCenter" numLanes="1" priority="1"/>
    <edge from="3way_A07" id="6_3way_A07to3way_A06" to="3way_A06" spreadType="roadCenter" numLanes="1" priority="1"/>
    <edge from="3way_A06" id="7_3way_A06to4way_B06" to="4way_B06" spreadType="roadCenter" numLanes="1" priority="0"/>
    <edge from="4way_B06" id="7_4way_B06to3way_A06" to="3way_A06" spreadType="roadCenter" numLanes="1" priority="0"/>
    <edge from="3way_A07" id="8_3way_A07to3way_A08" to="3way_A08" spreadType="roadCenter" numLanes="1" priority="1"/>
    <edge from="3way_A08" id="8_3way_A08to3way_A07" to="3way_A07" spreadType="roadCenter" numLanes="1" priority="1"/>
    <edge from="3way_A07" id="9_3way_A07to4way_B07" to="4way_B07" spreadType="roadCenter" numLanes="1" priority="0"/>
    <edge from="4way_B07" id="9_4way_B07to3way_A07" to="3way_A07" spreadType="roadCenter" numLanes="1" priority="0"/>
    <edge from="3way_A08" id="10_3way_A08to3way_A09" to="3way_A09" spreadType="roadCenter" numLanes="1" priority="1"/>
    <edge from="3way_A09" id="10_3way_A09to3way_A08" to="3way_A08" spreadType="roadCenter" numLanes="1" priority="1"/>
    <edge from="3way_A08" id="11_3way_A08to4way_B08" to="4way_B08" spreadType="roadCenter" numLanes="1" priority="0"/>
    <edge from="4way_B08" id="11_4way_B08to3way_A08" to="3way_A08" spreadType="roadCenter" numLanes="1" priority="0"/>
    <edge from="3way_A09" id="12_3way_A09to3way_B10" to="3way_B10" spreadType="roadCenter" numLanes="1" priority="1" shape="900.00,0.00 1000.00,0.00 1000.00,-100.00"/>
    <edge from="3way_B10" id="12_3way_B10to3way_A09" to="3way_A09" spreadType="roadCenter" numLanes="1" priority="1" shape="1000.00,-100.00 1000.00,0.00 900.00,0.00"/>
    <edge from="3way_A09" id="13_3way_A09to4way_B09" to="4way_B09" spreadType="roadCenter" numLanes="1" priority="0"/>
    <edge from="4way_B09" id="13_4way_B09to3way_A09" to="3way_A09" spreadType="roadCenter" numLanes="1" priority="0"/>
    <edge from="3way_B03" id="14_3way_B03to3way_C03" to="3way_C03" spreadType="roadCenter" numLanes="1" priority="1"/>
    <edge from="3way_C03" id="14_3way_C03to3way_B03" to="3way_B03" spreadType="roadCenter" numLanes="1" priority="1"/>
    <edge from="3way_B03" id="15_3way_B03to4way_B04" to="4way_B04" spreadType="roadCenter" numLanes="1" priority="1"/>
    <edge from="4way_B04" id="15_4way_B04to3way_B03" to="3way_B03" spreadType="roadCenter" numLanes="1" priority="1"/>
    <edge from="3way_B05" id="16_3way_B05to4way_B04" to="4way_B04" spreadType="roadCenter" numLanes="1" priority="1"/>
    <edge from="4way_B04" id="16_4way_B04to3way_B05" to="3way_B05" spreadType="roadCenter" numLanes="1" priority="1"/>
    <edge from="3way_B05" id="17_3way_B05to4way_B06" to="4way_B06" spreadType="roadCenter" numLanes="1" priority="1"/>
    <edge from="4way_B06" id="17_4way_B06to3way_B05" to="3way_B05" spreadType="roadCenter" numLanes="1" priority="1"/>
    <edge from="3way_B10" id="18_3way_B10to3way_C10" to="3way_C10" spreadType="roadCenter" numLanes="1" priority="1"/>
    <edge from="3way_C10" id="18_3way_C10to3way_B10" to="3way_B10" spreadType="roadCenter" numLanes="1" priority="1"/>
    <edge from="3way_B10" id="19_3way_B10to4way_B09" to="4way_B09" spreadType="roadCenter" numLanes="1" priority="0"/>
    <edge from="4way_B09" id="19_4way_B09to3way_B10" to="3way_B10" spreadType="roadCenter" numLanes="1" priority="0"/>
    <edge from="3way_C03" id="20_3way_C03to3way_C04" to="3way_C04" spreadType="roadCenter" numLanes="1" priority="0"/>
    <edge from="3way_C04" id="20_3way_C04to3way_C03" to="3way_C03" spreadType="roadCenter" numLanes="1" priority="0"/>
    <edge from="3way_C03" id="21_3way_C03to4way_D03" to="4way_D03" spreadType="roadCenter" numLanes="1" priority="1"/>
    <edge from="4way_D03" id="21_4way_D03to3way_C03" to="3way_C03" spreadType="roadCenter" numLanes="1" priority="1"/>
    <edge from="3way_C04" id="22_3way_C04to4way_B04" to="4way_B04" spreadType="roadCenter" numLanes="1" priority="1"/>
    <edge from="4way_B04" id="22_4way_B04to3way_C04" to="3way_C04" spreadType="roadCenter" numLanes="1" priority="1"/>
    <edge from="3way_C04" id="23_3way_C04to4way_D04" to="4way_D04" spreadType="roadCenter" numLanes="1" priority="1"/>
    <edge from="4way_D04" id="23_4way_D04to3way_C04" to="3way_C04" spreadType="roadCenter" numLanes="1" priority="1"/>
    <edge from="3way_C06" id="24_3way_C06to4way_B06" to="4way_B06" spreadType="roadCenter" numLanes="1" priority="1"/>
    <edge from="4way_B06" id="24_4way_B06to3way_C06" to="3way_C06" spreadType="roadCenter" numLanes="1" priority="1"/>
    <edge from="3way_C06" id="25_3way_C06to4way_C07" to="4way_C07" spreadType="roadCenter" numLanes="1" priority="0"/>
    <edge from="4way_C07" id="25_4way_C07to3way_C06" to="3way_C06" spreadType="roadCenter" numLanes="1" priority="0"/>
    <edge from="3way_C06" id="26_3way_C06to4way_D06" to="4way_D06" spreadType="roadCenter" numLanes="1" priority="1"/>
    <edge from="4way_D06" id="26_4way_D06to3way_C06" to="3way_C06" spreadType="roadCenter" numLanes="1" priority="1"/>
    <edge from="3way_C10" id="27_3way_C10to3way_D10" to="3way_D10" spreadType="roadCenter" numLanes="1" priority="1"/>
    <edge from="3way_D10" id="27_3way_D10to3way_C10" to="3way_C10" spreadType="roadCenter" numLanes="1" priority="1"/>
    <edge from="3way_C10" id="28_3way_C10to4way_C09" to="4way_C09" spreadType="roadCenter" numLanes="1" priority="0"/>
    <edge from="4way_C09" id="28_4way_C09to3way_C10" to="3way_C10" spreadType="roadCenter" numLanes="1" priority="0"/>
    <edge from="3way_E00" id="29_3way_E00to3way_D01" to="3way_D01" spreadType="roadCenter" numLanes="1" priority="0" shape="0.00,-400.00 0.00,-300.00 100.00,-300.00"/>
    <edge from="3way_D01" id="29_3way_D01to3way_E00" to="3way_E00" spreadType="roadCenter" numLanes="1" priority="0" shape="100.00,-300.00 0.00,-300.00 0.00,-400.00"/>
    <edge from="3way_D01" id="30_3way_D01to4way_D03" to="4way_D03" spreadType="roadCenter" numLanes="1" priority="1"/>
    <edge from="4way_D03" id="30_4way_D03to3way_D01" to="3way_D01" spreadType="roadCenter" numLanes="1" priority="1"/>
    <edge from="3way_D01" id="31_3way_D01to4way_E01" to="4way_E01" spreadType="roadCenter" numLanes="1" priority="1"/>
    <edge from="4way_E01" id="31_4way_E01to3way_D01" to="3way_D01" spreadType="roadCenter" numLanes="1" priority="1"/>
    <edge from="3way_D05" id="32_3way_D05to4way_D04" to="4way_D04" spreadType="roadCenter" numLanes="1" priority="1"/>
    <edge from="4way_D04" id="32_4way_D04to3way_D05" to="3way_D05" spreadType="roadCenter" numLanes="1" priority="1"/>
    <edge from="3way_D05" id="33_3way_D05to4way_D06" to="4way_D06" spreadType="roadCenter" numLanes="1" priority="1"/>
    <edge from="4way_D06" id="33_4way_D06to3way_D05" to="3way_D05" spreadType="roadCenter" numLanes="1" priority="1"/>
    <edge from="3way_D05" id="34_3way_D05to4way_E05" to="4way_E05" spreadType="roadCenter" numLanes="1" priority="0"/>
    <edge from="4way_E05" id="34_4way_E05to3way_D05" to="3way_D05" spreadType="roadCenter" numLanes="1" priority="0"/>
    <edge from="3way_D10" id="35_3way_D10to3way_E10" to="3way_E10" spreadType="roadCenter" numLanes="1" priority="1"/>
    <edge from="3way_E10" id="35_3way_E10to3way_D10" to="3way_D10" spreadType="roadCenter" numLanes="1" priority="1"/>
    <edge from="3way_D10" id="36_3way_D10to4way_D09" to="4way_D09" spreadType="roadCenter" numLanes="1" priority="0"/>
    <edge from="4way_D09" id="36_4way_D09to3way_D10" to="3way_D10" spreadType="roadCenter" numLanes="1" priority="0"/>
    <edge from="3way_E00" id="37_3way_E00to3way_F00" to="3way_F00" spreadType="roadCenter" numLanes="1" priority="1"/>
    <edge from="3way_F00" id="37_3way_F00to3way_E00" to="3way_E00" spreadType="roadCenter" numLanes="1" priority="1"/>
    <edge from="3way_E00" id="38_3way_E00to4way_E01" to="4way_E01" spreadType="roadCenter" numLanes="1" priority="0"/>
    <edge from="4way_E01" id="38_4way_E01to3way_E00" to="3way_E00" spreadType="roadCenter" numLanes="1" priority="0"/>
    <edge from="3way_E02" id="39_3way_E02to4way_E01" to="4way_E01" spreadType="roadCenter" numLanes="1" priority="1"/>
    <edge from="4way_E01" id="39_4way_E01to3way_E02" to="3way_E02" spreadType="roadCenter" numLanes="1" priority="1"/>
    <edge from="3way_E02" id="40_3way_E02to4way_E03" to="4way_E03" spreadType="roadCenter" numLanes="1" priority="1"/>
    <edge from="4way_E03" id="40_4way_E03to3way_E02" to="3way_E02" spreadType="roadCenter" numLanes="1" priority="1"/>
    <edge from="3way_E02" id="41_3way_E02to4way_F02" to="4way_F02" spreadType="roadCenter" numLanes="1" priority="0"/>
    <edge from="4way_F02" id="41_4way_F02to3way_E02" to="3way_E02" spreadType="roadCenter" numLanes="1" priority="0"/>
    <edge from="3way_E10" id="42_3way_E10to3way_F10" to="3way_F10" spreadType="roadCenter" numLanes="1" priority="1"/>
    <edge from="3way_F10" id="42_3way_F10to3way_E10" to="3way_E10" spreadType="roadCenter" numLanes="1" priority="1"/>
    <edge from="3way_E10" id="43_3way_E10to4way_E09" to="4way_E09" spreadType="roadCenter" numLanes="1" priority="0"/>
    <edge from="4way_E09" id="43_4way_E09to3way_E10" to="3way_E10" spreadType="roadCenter" numLanes="1" priority="0"/>
    <edge from="3way_F00" id="44_3way_F00to3way_G00" to="3way_G00" spreadType="roadCenter" numLanes="1" priority="1"/>
    <edge from="3way_G00" id="44_3way_G00to3way_F00" to="3way_F00" spreadType="roadCenter" numLanes="1" priority="1"/>
    <edge from="3way_F00" id="45_3way_F00to4way_F01" to="4way_F01" spreadType="roadCenter" numLanes="1" priority="0"/>
    <edge from="4way_F01" id="45_4way_F01to3way_F00" to="3way_F00" spreadType="roadCenter" numLanes="1" priority="0"/>
    <edge from="3way_F10" id="46_3way_F10to3way_G10" to="3way_G10" spreadType="roadCenter" numLanes="1" priority="1"/>
    <edge from="3way_G10" id="46_3way_G10to3way_F10" to="3way_F10" spreadType="roadCenter" numLanes="1" priority="1"/>
    <edge from="3way_F10" id="47_3way_F10to4way_F09" to="4way_F09" spreadType="roadCenter" numLanes="1" priority="0"/>
    <edge from="4way_F09" id="47_4way_F09to3way_F10" to="3way_F10" spreadType="roadCenter" numLanes="1" priority="0"/>
    <edge from="3way_H01" id="48_3way_H01to3way_G00" to="3way_G00" spreadType="roadCenter" numLanes="1" priority="1" shape="100.00,-700.00 0.00,-700.00 0.00,-600.00"/>
    <edge from="3way_G00" id="48_3way_G00to3way_H01" to="3way_H01" spreadType="roadCenter" numLanes="1" priority="1" shape="0.00,-600.00 0.00,-700.00 100.00,-700.00"/>
    <edge from="3way_G00" id="49_3way_G00to4way_G01" to="4way_G01" spreadType="roadCenter" numLanes="1" priority="0"/>
    <edge from="4way_G01" id="49_4way_G01to3way_G00" to="3way_G00" spreadType="roadCenter" numLanes="1" priority="0"/>
    <edge from="3way_G10" id="50_3way_G10to3way_H09" to="3way_H09" spreadType="roadCenter" numLanes="1" priority="1" shape="1000.00,-600.00 1000.00,-700.00 900.00,-700.00"/>
    <edge from="3way_H09" id="50_3way_H09to3way_G10" to="3way_G10" spreadType="roadCenter" numLanes="1" priority="1" shape="900.00,-700.00 1000.00,-700.00 1000.00,-600.00"/>
    <edge from="3way_G10" id="51_3way_G10to4way_G09" to="4way_G09" spreadType="roadCenter" numLanes="1" priority="0"/>
    <edge from="4way_G09" id="51_4way_G09to3way_G10" to="3way_G10" spreadType="roadCenter" numLanes="1" priority="0"/>
    <edge from="3way_H01" id="52_3way_H01to3way_H02" to="3way_H02" spreadType="roadCenter" numLanes="1" priority="1"/>
    <edge from="3way_H02" id="52_3way_H02to3way_H01" to="3way_H01" spreadType="roadCenter" numLanes="1" priority="1"/>
    <edge from="3way_H01" id="53_3way_H01to4way_G01" to="4way_G01" spreadType="roadCenter" numLanes="1" priority="0"/>
    <edge from="4way_G01" id="53_4way_G01to3way_H01" to="3way_H01" spreadType="roadCenter" numLanes="1" priority="0"/>
    <edge from="3way_H02" id="54_3way_H02to3way_H03" to="3way_H03" spreadType="roadCenter" numLanes="1" priority="1"/>
    <edge from="3way_H03" id="54_3way_H03to3way_H02" to="3way_H02" spreadType="roadCenter" numLanes="1" priority="1"/>
    <edge from="3way_H02" id="55_3way_H02to4way_G02" to="4way_G02" spreadType="roadCenter" numLanes="1" priority="0"/>
    <edge from="4way_G02" id="55_4way_G02to3way_H02" to="3way_H02" spreadType="roadCenter" numLanes="1" priority="0"/>
    <edge from="3way_H03" id="56_3way_H03to3way_H04" to="3way_H04" spreadType="roadCenter" numLanes="1" priority="1"/>
    <edge from="3way_H04" id="56_3way_H04to3way_H03" to="3way_H03" spreadType="roadCenter" numLanes="1" priority="1"/>
    <edge from="3way_H03" id="57_3way_H03to4way_G03" to="4way_G03" spreadType="roadCenter" numLanes="1" priority="0"/>
    <edge from="4way_G03" id="57_4way_G03to3way_H03" to="3way_H03" spreadType="roadCenter" numLanes="1" priority="0"/>
    <edge from="3way_H04" id="58_3way_H04to3way_H05" to="3way_H05" spreadType="roadCenter" numLanes="1" priority="1"/>
    <edge from="3way_H05" id="58_3way_H05to3way_H04" to="3way_H04" spreadType="roadCenter" numLanes="1" priority="1"/>
    <edge from="3way_H04" id="59_3way_H04to4way_G04" to="4way_G04" spreadType="roadCenter" numLanes="1" priority="0"/>
    <edge from="4way_G04" id="59_4way_G04to3way_H04" to="3way_H04" spreadType="roadCenter" numLanes="1" priority="0"/>
    <edge from="3way_H05" id="60_3way_H05to3way_H06" to="3way_H06" spreadType="roadCenter" numLanes="1" priority="1"/>
    <edge from="3way_H06" id="60_3way_H06to3way_H05" to="3way_H05" spreadType="roadCenter" numLanes="1" priority="1"/>
    <edge from="3way_H05" id="61_3way_H05to4way_G05" to="4way_G05" spreadType="roadCenter" numLanes="1" priority="0"/>
    <edge from="4way_G05" id="61_4way_G05to3way_H05" to="3way_H05" spreadType="roadCenter" numLanes="1" priority="0"/>
    <edge from="3way_H06" id="62_3way_H06to3way_H07" to="3way_H07" spreadType="roadCenter" numLanes="1" priority="1"/>
    <edge from="3way_H07" id="62_3way_H07to3way_H06" to="3way_H06" spreadType="roadCenter" numLanes="1" priority="1"/>
    <edge from="3way_H06" id="63_3way_H06to4way_G06" to="4way_G06" spreadType="roadCenter" numLanes="1" priority="0"/>
    <edge from="4way_G06" id="63_4way_G06to3way_H06" to="3way_H06" spreadType="roadCenter" numLanes="1" priority="0"/>
    <edge from="3way_H07" id="64_3way_H07to3way_H08" to="3way_H08" spreadType="roadCenter" numLanes="1" priority="1"/>
    <edge from="3way_H08" id="64_3way_H08to3way_H07" to="3way_H07" spreadType="roadCenter" numLanes="1" priority="1"/>
    <edge from="3way_H07" id="65_3way_H07to4way_G07" to="4way_G07" spreadType="roadCenter" numLanes="1" priority="0"/>
    <edge from="4way_G07" id="65_4way_G07to3way_H07" to="3way_H07" spreadType="roadCenter" numLanes="1" priority="0"/>
    <edge from="3way_H08" id="66_3way_H08to3way_H09" to="3way_H09" spreadType="roadCenter" numLanes="1" priority="1"/>
    <edge from="3way_H09" id="66_3way_H09to3way_H08" to="3way_H08" spreadType="roadCenter" numLanes="1" priority="1"/>
    <edge from="3way_H08" id="67_3way_H08to4way_G08" to="4way_G08" spreadType="roadCenter" numLanes="1" priority="0"/>
    <edge from="4way_G08" id="67_4way_G08to3way_H08" to="3way_H08" spreadType="roadCenter" numLanes="1" priority="0"/>
    <edge from="3way_H09" id="68_3way_H09to4way_G09" to="4way_G09" spreadType="roadCenter" numLanes="1" priority="0"/>
    <edge from="4way_G09" id="68_4way_G09to3way_H09" to="3way_H09" spreadType="roadCenter" numLanes="1" priority="0"/>
    <edge from="4way_B06" id="69_4way_B06to4way_B07" to="4way_B07" spreadType="roadCenter" numLanes="1" priority="1"/>
    <edge from="4way_B07" id="69_4way_B07to4way_B06" to="4way_B06" spreadType="roadCenter" numLanes="1" priority="1"/>
    <edge from="4way_B07" id="70_4way_B07to4way_B08" to="4way_B08" spreadType="roadCenter" numLanes="1" priority="1"/>
    <edge from="4way_B08" id="70_4way_B08to4way_B07" to="4way_B07" spreadType="roadCenter" numLanes="1" priority="1"/>
    <edge from="4way_B07" id="71_4way_B07to4way_C07" to="4way_C07" spreadType="roadCenter" numLanes="1" priority="1"/>
    <edge from="4way_C07" id="71_4way_C07to4way_B07" to="4way_B07" spreadType="roadCenter" numLanes="1" priority="1"/>
    <edge from="4way_B08" id="72_4way_B08to4way_B09" to="4way_B09" spreadType="roadCenter" numLanes="1" priority="1"/>
    <edge from="4way_B09" id="72_4way_B09to4way_B08" to="4way_B08" spreadType="roadCenter" numLanes="1" priority="1"/>
    <edge from="4way_B08" id="73_4way_B08to4way_C08" to="4way_C08" spreadType="roadCenter" numLanes="1" priority="1"/>
    <edge from="4way_C08" id="73_4way_C08to4way_B08" to="4way_B08" spreadType="roadCenter" numLanes="1" priority="1"/>
    <edge from="4way_B09" id="74_4way_B09to4way_C09" to="4way_C09" spreadType="roadCenter" numLanes="1" priority="1"/>
    <edge from="4way_C09" id="74_4way_C09to4way_B09" to="4way_B09" spreadType="roadCenter" numLanes="1" priority="1"/>
    <edge from="4way_C07" id="75_4way_C07to4way_C08" to="4way_C08" spreadType="roadCenter" numLanes="1" priority="1"/>
    <edge from="4way_C08" id="75_4way_C08to4way_C07" to="4way_C07" spreadType="roadCenter" numLanes="1" priority="1"/>
    <edge from="4way_C07" id="76_4way_C07to4way_D07" to="4way_D07" spreadType="roadCenter" numLanes="1" priority="1"/>
    <edge from="4way_D07" id="76_4way_D07to4way_C07" to="4way_C07" spreadType="roadCenter" numLanes="1" priority="1"/>
    <edge from="4way_C08" id="77_4way_C08to4way_C09" to="4way_C09" spreadType="roadCenter" numLanes="1" priority="1"/>
    <edge from="4way_C09" id="77_4way_C09to4way_C08" to="4way_C08" spreadType="roadCenter" numLanes="1" priority="1"/>
    <edge from="4way_C08" id="78_4way_C08to4way_D08" to="4way_D08" spreadType="roadCenter" numLanes="1" priority="1"/>
    <edge from="4way_D08" id="78_4way_D08to4way_C08" to="4way_C08" spreadType="roadCenter" numLanes="1" priority="1"/>
    <edge from="4way_C09" id="79_4way_C09to4way_D09" to="4way_D09" spreadType="roadCenter" numLanes="1" priority="1"/>
    <edge from="4way_D09" id="79_4way_D09to4way_C09" to="4way_C09" spreadType="roadCenter" numLanes="1" priority="1"/>
    <edge from="4way_D03" id="80_4way_D03to4way_D04" to="4way_D04" spreadType="roadCenter" numLanes="1" priority="1"/>
    <edge from="4way_D04" id="80_4way_D04to4way_D03" to="4way_D03" spreadType="roadCenter" numLanes="1" priority="1"/>
    <edge from="4way_D03" id="81_4way_D03to4way_E03" to="4way_E03" spreadType="roadCenter" numLanes="1" priority="1"/>
    <edge from="4way_E03" id="81_4way_E03to4way_D03" to="4way_D03" spreadType="roadCenter" numLanes="1" priority="1"/>
    <edge from="4way_D04" id="82_4way_D04to4way_E04" to="4way_E04" spreadType="roadCenter" numLanes="1" priority="1"/>
    <edge from="4way_E04" id="82_4way_E04to4way_D04" to="4way_D04" spreadType="roadCenter" numLanes="1" priority="1"/>
    <edge from="4way_D06" id="83_4way_D06to4way_D07" to="4way_D07" spreadType="roadCenter" numLanes="1" priority="1"/>
    <edge from="4way_D07" id="83_4way_D07to4way_D06" to="4way_D06" spreadType="roadCenter" numLanes="1" priority="1"/>
    <edge from="4way_D06" id="84_4way_D06to4way_E06" to="4way_E06" spreadType="roadCenter" numLanes="1" priority="1"/>
    <edge from="4way_E06" id="84_4way_E06to4way_D06" to="4way_D06" spreadType="roadCenter" numLanes="1" priority="1"/>
    <edge from="4way_D07" id="85_4way_D07to4way_D08" to="4way_D08" spreadType="roadCenter" numLanes="1" priority="1"/>
    <edge from="4way_D08" id="85_4way_D08to4way_D07" to="4way_D07" spreadType="roadCenter" numLanes="1" priority="1"/>
    <edge from="4way_D07" id="86_4way_D07to4way_E07" to="4way_E07" spreadType="roadCenter" numLanes="1" priority="1"/>
    <edge from="4way_E07" id="86_4way_E07to4way_D07" to="4way_D07" spreadType="roadCenter" numLanes="1" priority="1"/>
    <edge from="4way_D08" id="87_4way_D08to4way_D09" to="4way_D09" spreadType="roadCenter" numLanes="1" priority="1"/>
    <edge from="4way_D09" id="87_4way_D09to4way_D08" to="4way_D08" spreadType="roadCenter" numLanes="1" priority="1"/>
    <edge from="4way_D08" id="88_4way_D08to4way_E08" to="4way_E08" spreadType="roadCenter" numLanes="1" priority="1"/>
    <edge from="4way_E08" id="88_4way_E08to4way_D08" to="4way_D08" spreadType="roadCenter" numLanes="1" priority="1"/>
    <edge from="4way_D09" id="89_4way_D09to4way_E09" to="4way_E09" spreadType="roadCenter" numLanes="1" priority="1"/>
    <edge from="4way_E09" id="89_4way_E09to4way_D09" to="4way_D09" spreadType="roadCenter" numLanes="1" priority="1"/>
    <edge from="4way_E01" id="90_4way_E01to4way_F01" to="4way_F01" spreadType="roadCenter" numLanes="1" priority="1"/>
    <edge from="4way_F01" id="90_4way_F01to4way_E01" to="4way_E01" spreadType="roadCenter" numLanes="1" priority="1"/>
    <edge from="4way_E03" id="91_4way_E03to4way_E04" to="4way_E04" spreadType="roadCenter" numLanes="1" priority="1"/>
    <edge from="4way_E04" id="91_4way_E04to4way_E03" to="4way_E03" spreadType="roadCenter" numLanes="1" priority="1"/>
    <edge from="4way_E03" id="92_4way_E03to4way_F03" to="4way_F03" spreadType="roadCenter" numLanes="1" priority="1"/>
    <edge from="4way_F03" id="92_4way_F03to4way_E03" to="4way_E03" spreadType="roadCenter" numLanes="1" priority="1"/>
    <edge from="4way_E04" id="93_4way_E04to4way_E05" to="4way_E05" spreadType="roadCenter" numLanes="1" priority="1"/>
    <edge from="4way_E05" id="93_4way_E05to4way_E04" to="4way_E04" spreadType="roadCenter" numLanes="1" priority="1"/>
    <edge from="4way_E04" id="94_4way_E04to4way_F04" to="4way_F04" spreadType="roadCenter" numLanes="1" priority="1"/>
    <edge from="4way_F04" id="94_4way_F04to4way_E04" to="4way_E04" spreadType="roadCenter" numLanes="1" priority="1"/>
    <edge from="4way_E05" id="95_4way_E05to4way_E06" to="4way_E06" spreadType="roadCenter" numLanes="1" priority="1"/>
    <edge from="4way_E06" id="95_4way_E06to4way_E05" to="4way_E05" spreadType="roadCenter" numLanes="1" priority="1"/>
    <edge from="4way_E05" id="96_4way_E05to4way_F05" to="4way_F05" spreadType="roadCenter" numLanes="1" priority="1"/>
    <edge from="4way_F05" id="96_4way_F05to4way_E05" to="4way_E05" spreadType="roadCenter" numLanes="1" priority="1"/>
    <edge from="4way_E06" id="97_4way_E06to4way_E07" to="4way_E07" spreadType="roadCenter" numLanes="1" priority="1"/>
    <edge from="4way_E07" id="97_4way_E07to4way_E06" to="4way_E06" spreadType="roadCenter" numLanes="1" priority="1"/>
    <edge from="4way_E06" id="98_4way_E06to4way_F06" to="4way_F06" spreadType="roadCenter" numLanes="1" priority="1"/>
    <edge from="4way_F06" id="98_4way_F06to4way_E06" to="4way_E06" spreadType="roadCenter" numLanes="1" priority="1"/>
    <edge from="4way_E07" id="99_4way_E07to4way_E08" to="4way_E08" spreadType="roadCenter" numLanes="1" priority="1"/>
    <edge from="4way_E08" id="99_4way_E08to4way_E07" to="4way_E07" spreadType="roadCenter" numLanes="1" priority="1"/>
    <edge from="4way_E07" id="100_4way_E07to4way_F07" to="4way_F07" spreadType="roadCenter" numLanes="1" priority="1"/>
    <edge from="4way_F07" id="100_4way_F07to4way_E07" to="4way_E07" spreadType="roadCenter" numLanes="1" priority="1"/>
    <edge from="4way_E08" id="101_4way_E08to4way_E09" to="4way_E09" spreadType="roadCenter" numLanes="1" priority="1"/>
    <edge from="4way_E09" id="101_4way_E09to4way_E08" to="4way_E08" spreadType="roadCenter" numLanes="1" priority="1"/>
    <edge from="4way_E08" id="102_4way_E08to4way_F08" to="4way_F08" spreadType="roadCenter" numLanes="1" priority="1"/>
    <edge from="4way_F08" id="102_4way_F08to4way_E08" to="4way_E08" spreadType="roadCenter" numLanes="1" priority="1"/>
    <edge from="4way_E09" id="103_4way_E09to4way_F09" to="4way_F09" spreadType="roadCenter" numLanes="1" priority="1"/>
    <edge from="4way_F09" id="103_4way_F09to4way_E09" to="4way_E09" spreadType="roadCenter" numLanes="1" priority="1"/>
    <edge from="4way_F01" id="104_4way_F01to4way_F02" to="4way_F02" spreadType="roadCenter" numLanes="1" priority="1"/>
    <edge from="4way_F02" id="104_4way_F02to4way_F01" to="4way_F01" spreadType="roadCenter" numLanes="1" priority="1"/>
    <edge from="4way_F01" id="105_4way_F01to4way_G01" to="4way_G01" spreadType="roadCenter" numLanes="1" priority="1"/>
    <edge from="4way_G01" id="105_4way_G01to4way_F01" to="4way_F01" spreadType="roadCenter" numLanes="1" priority="1"/>
    <edge from="4way_F02" id="106_4way_F02to4way_F03" to="4way_F03" spreadType="roadCenter" numLanes="1" priority="1"/>
    <edge from="4way_F03" id="106_4way_F03to4way_F02" to="4way_F02" spreadType="roadCenter" numLanes="1" priority="1"/>
    <edge from="4way_F02" id="107_4way_F02to4way_G02" to="4way_G02" spreadType="roadCenter" numLanes="1" priority="1"/>
    <edge from="4way_G02" id="107_4way_G02to4way_F02" to="4way_F02" spreadType="roadCenter" numLanes="1" priority="1"/>
    <edge from="4way_F03" id="108_4way_F03to4way_F04" to="4way_F04" spreadType="roadCenter" numLanes="1" priority="1"/>
    <edge from="4way_F04" id="108_4way_F04to4way_F03" to="4way_F03" spreadType="roadCenter" numLanes="1" priority="1"/>
    <edge from="4way_F03" id="109_4way_F03to4way_G03" to="4way_G03" spreadType="roadCenter" numLanes="1" priority="1"/>
    <edge from="4way_G03" id="109_4way_G03to4way_F03" to="4way_F03" spreadType="roadCenter" numLanes="1" priority="1"/>
    <edge from="4way_F04" id="110_4way_F04to4way_F05" to="4way_F05" spreadType="roadCenter" numLanes="1" priority="1"/>
    <edge from="4way_F05" id="110_4way_F05to4way_F04" to="4way_F04" spreadType="roadCenter" numLanes="1" priority="1"/>
    <edge from="4way_F04" id="111_4way_F04to4way_G04" to="4way_G04" spreadType="roadCenter" numLanes="1" priority="1"/>
    <edge from="4way_G04" id="111_4way_G04to4way_F04" to="4way_F04" spreadType="roadCenter" numLanes="1" priority="1"/>
    <edge from="4way_F05" id="112_4way_F05to4way_F06" to="4way_F06" spreadType="roadCenter" numLanes="1" priority="1"/>
    <edge from="4way_F06" id="112_4way_F06to4way_F05" to="4way_F05" spreadType="roadCenter" numLanes="1" priority="1"/>
    <edge from="4way_F05" id="113_4way_F05to4way_G05" to="4way_G05" spreadType="roadCenter" numLanes="1" priority="1"/>
    <edge from="4way_G05" id="113_4way_G05to4way_F05" to="4way_F05" spreadType="roadCenter" numLanes="1" priority="1"/>
    <edge from="4way_F06" id="114_4way_F06to4way_F07" to="4way_F07" spreadType="roadCenter" numLanes="1" priority="1"/>
    <edge from="4way_F07" id="114_4way_F07to4way_F06" to="4way_F06" spreadType="roadCenter" numLanes="1" priority="1"/>
    <edge from="4way_F06" id="115_4way_F06to4way_G06" to="4way_G06" spreadType="roadCenter" numLanes="1" priority="1"/>
    <edge from="4way_G06" id="115_4way_G06to4way_F06" to="4way_F06" spreadType="roadCenter" numLanes="1" priority="1"/>
    <edge from="4way_F07" id="116_4way_F07to4way_F08" to="4way_F08" spreadType="roadCenter" numLanes="1" priority="1"/>
    <edge from="4way_F08" id="116_4way_F08to4way_F07" to="4way_F07" spreadType="roadCenter" numLanes="1" priority="1"/>
    <edge from="4way_F07" id="117_4way_F07to4way_G07" to="4way_G07" spreadType="roadCenter" numLanes="1" priority="1"/>
    <edge from="4way_G07" id="117_4way_G07to4way_F07" to="4way_F07" spreadType="roadCenter" numLanes="1" priority="1"/>
    <edge from="4way_F08" id="118_4way_F08to4way_F09" to="4way_F09" spreadType="roadCenter" numLanes="1" priority="1"/>
    <edge from="4way_F09" id="118_4way_F09to4way_F08" to="4way_F08" spreadType="roadCenter" numLanes="1" priority="1"/>
    <edge from="4way_F08" id="119_4way_F08to4way_G08" to="4way_G08" spreadType="roadCenter" numLanes="1" priority="1"/>
    <edge from="4way_G08" id="119_4way_G08to4way_F08" to="4way_F08" spreadType="roadCenter" numLanes="1" priority="1"/>
    <edge from="4way_F09" id="120_4way_F09to4way_G09" to="4way_G09" spreadType="roadCenter" numLanes="1" priority="1"/>
    <edge from="4way_G09" id="120_4way_G09to4way_F09" to="4way_F09" spreadType="roadCenter" numLanes="1" priority="1"/>
    <edge from="4way_G01" id="121_4way_G01to4way_G02" to="4way_G02" spreadType="roadCenter" numLanes="1" priority="1"/>
    <edge from="4way_G02" id="121_4way_G02to4way_G01" to="4way_G01" spreadType="roadCenter" numLanes="1" priority="1"/>
    <edge from="4way_G02" id="122_4way_G02to4way_G03" to="4way_G03" spreadType="roadCenter" numLanes="1" priority="1"/>
    <edge from="4way_G03" id="122_4way_G03to4way_G02" to="4way_G02" spreadType="roadCenter" numLanes="1" priority="1"/>
    <edge from="4way_G03" id="123_4way_G03to4way_G04" to="4way_G04" spreadType="roadCenter" numLanes="1" priority="1"/>
    <edge from="4way_G04" id="123_4way_G04to4way_G03" to="4way_G03" spreadType="roadCenter" numLanes="1" priority="1"/>