<routes xmlns:xsi="http://www.w3.org/2001/XMLSchema-instance" xsi:noNamespaceSchemaLocation="http://sumo.dlr.de/xsd/routes_file.xsd">
<trip id="0" depart="0.0" fromJunction="4way_55" toJunction="4way_53"/>
<trip id="1" depart="0.67" fromJunction="4way_53" toJunction="4way_24"/>
<trip id="2" depart="1.34" fromJunction="4way_74" toJunction="4way_12"/>
<trip id="3" depart="2.0100000000000002" fromJunction="4way_67" toJunction="4way_32"/>
<trip id="4" depart="2.68" fromJunction="4way_51" toJunction="4way_58"/>
<trip id="5" depart="3.35" fromJunction="4way_33" toJunction="4way_56"/>
<trip id="6" depart="4.0200000000000005" fromJunction="4way_18" toJunction="4way_73"/>
<trip id="7" depart="4.69" fromJunction="3way_19" toJunction="3way_7"/>
<trip id="8" depart="5.36" fromJunction="4way_86" toJunction="3way_2"/>
<trip id="9" depart="6.03" fromJunction="4way_47" toJunction="4way_36"/>
<trip id="10" depart="6.7" fromJunction="4way_56" toJunction="4way_68"/>
<trip id="11" depart="7.37" fromJunction="4way_36" toJunction="4way_52"/>
<trip id="12" depart="8.040000000000001" fromJunction="4way_64" toJunction="3way_49"/>
<trip id="13" depart="8.71" fromJunction="4way_38" toJunction="3way_69"/>
<trip id="14" depart="9.38" fromJunction="4way_81" toJunction="4way_33"/>
<trip id="15" depart="10.05" fromJunction="4way_36" toJunction="3way_70"/>
<trip id="16" depart="10.72" fromJunction="4way_73" toJunction="4way_42"/>
<trip id="17" depart="11.39" fromJunction="4way_44" toJunction="3way_2"/>
<trip id="18" depart="12.06" fromJunction="4way_44" toJunction="4way_34"/>
<trip id="19" depart="12.73" fromJunction="4way_25" toJunction="4way_38"/>
<trip id="20" depart="13.4" fromJunction="4way_22" toJunction="4way_31"/>
<trip id="21" depart="14.07" fromJunction="3way_6" toJunction="4way_35"/>
<trip id="22" depart="14.74" fromJunction="3way_59" toJunction="3way_94"/>
<trip id="23" depart="15.41" fromJunction="4way_31" toJunction="3way_20"/>
<trip id="24" depart="16.080000000000002" fromJunction="4way_32" toJunction="4way_73"/>
<trip id="25" depart="16.75" fromJunction="3way_29" toJunction="4way_78"/>
<trip id="26" depart="17.42" fromJunction="3way_89" toJunction="3way_94"/>
<trip id="27" depart="18.09" fromJunction="3way_80" toJunction="4way_74"/>
<trip id="28" depart="18.76" fromJunction="3way_91" toJunction="4way_52"/>
<trip id="29" depart="19.43" fromJunction="3way_39" toJunction="3way_89"/>
<trip id="30" depart="20.1" fromJunction="3way_69" toJunction="4way_84"/>
<trip id="31" depart="20.77" fromJunction="4way_41" toJunction="3way_96"/>
<trip id="32" depart="21.44" fromJunction="3way_29" toJunction="4way_76"/>
<trip id="33" depart="22.110000000000003" fromJunction="3way_29" toJunction="4way_17"/>
<trip id="34" depart="22.78" fromJunction="4way_52" toJunction="4way_68"/>
<trip id="35" depart="23.450000000000003" fromJunction="4way_34" toJunction="4way_68"/>
<trip id="36" depart="24.12" fromJunction="3way_4" toJunction="4way_75"/>
<trip id="37" depart="24.790000000000003" fromJunction="3way_49" toJunction="3way_50"/>
<trip id="38" depart="25.46" fromJunction="3way_49" toJunction="3way_40"/>
<trip id="39" depart="26.130000000000003" fromJunction="4way_81" toJunction="3way_20"/>
<trip id="40" depart="26.8" fromJunction="4way_35" toJunction="3way_7"/>
<trip id="41" depart="27.470000000000002" fromJunction="3way_70" toJunction="4way_73"/>
<trip id="42" depart="28.14" fromJunction="3way_29" toJunction="4way_33"/>
<trip id="43" depart="28.810000000000002" fromJunction="4way_28" toJunction="4way_83"/>
<trip id="44" depart="29.48" fromJunction="4way_15" toJunction="3way_20"/>
<trip id="45" depart="30.150000000000002" fromJunction="4way_55" toJunction="3way_59"/>
<trip id="46" depart="30.82" fromJunction="3way_97" toJunction="3way_50"/>
<trip id="47" depart="31.490000000000002" fromJunction="3way_2" toJunction="4way_14"/>
<trip id="48" depart="32.160000000000004" fromJunction="3way_1" toJunction="4way_86"/>
<trip id="49" depart="32.830000000000005" fromJunction="3way_70" toJunction="4way_25"/>
<trip id="50" depart="33.5" fromJunction="4way_58" toJunction="4way_75"/>
<trip id="51" depart="34.17" fromJunction="4way_83" toJunction="3way_91"/>
<trip id="52" depart="34.84" fromJunction="4way_73" toJunction="4way_14"/>
<trip id="53" depart="35.510000000000005" fromJunction="4way_48" toJunction="3way_93"/>
<trip id="54" depart="36.18" fromJunction="4way_27" toJunction="4way_32"/>
<trip id="55" depart="36.85" fromJunction="3way_40" toJunction="4way_45"/>
<trip id="56" depart="37.52" fromJunction="4way_71" toJunction="4way_76"/>
<trip id="57" depart="38.190000000000005" fromJunction="4way_83" toJunction="4way_57"/>
<trip id="58" depart="38.86" fromJunction="4way_35" toJunction="4way_57"/>
<trip id="59" depart="39.53" fromJunction="4way_13" toJunction="4way_65"/>
<trip id="60" depart="40.2" fromJunction="4way_64" toJunction="4way_48"/>
<trip id="61" depart="40.870000000000005" fromJunction="4way_34" toJunction="4way_12"/>
<trip id="62" depart="41.54" fromJunction="3way_40" toJunction="3way_2"/>
<trip id="63" depart="42.21" fromJunction="3way_50" toJunction="4way_84"/>
<trip id="64" depart="42.88" fromJunction="4way_22" toJunction="4way_44"/>
<trip id="65" depart="43.550000000000004" fromJunction="3way_40" toJunction="3way_69"/>
<trip id="66" depart="44.220000000000006" fromJunction="4way_14" toJunction="4way_73"/>
<trip id="67" depart="44.89" fromJunction="4way_74" toJunction="4way_83"/>
<trip id="68" depart="45.56" fromJunction="4way_22" toJunction="4way_74"/>
<trip id="69" depart="46.230000000000004" fromJunction="4way_41" toJunction="4way_77"/>
<trip id="70" depart="46.900000000000006" fromJunction="4way_67" toJunction="4way_22"/>
<trip id="71" depart="47.57" fromJunction="4way_45" toJunction="4way_66"/>
<trip id="72" depart="48.24" fromJunction="4way_18" toJunction="3way_29"/>
<trip id="73" depart="48.910000000000004" fromJunction="4way_88" toJunction="4way_55"/>
<trip id="74" depart="49.580000000000005" fromJunction="4way_47" toJunction="3way_79"/>
<trip id="75" depart="50.25" fromJunction="4way_44" toJunction="3way_89"/>
<trip id="76" depart="50.92" fromJunction="4way_27" toJunction="3way_49"/>
<trip id="77" depart="51.59" fromJunction="4way_73" toJunction="4way_66"/>
<trip id="78" depart="52.260000000000005" fromJunction="3way_7" toJunction="4way_81"/>
<trip id="79" depart="52.93" fromJunction="4way_42" toJunction="4way_35"/>
<trip id="80" depart="53.6" fromJunction="4way_47" toJunction="4way_65"/>
<trip id="81" depart="54.27" fromJunction="4way_37" toJunction="4way_68"/>
<trip id="82" depart="54.940000000000005" fromJunction="4way_31" toJunction="3way_2"/>
<trip id="83" depart="55.61000000000001" fromJunction="3way_98" toJunction="4way_75"/>
<trip id="84" depart="56.28" fromJunction="3way_6" toJunction="4way_33"/>
<trip id="85" depart="56.95" fromJunction="3way_2" toJunction="3way_95"/>
<trip id="86" depart="57.620000000000005" fromJunction="3way_93" toJunction="4way_56"/>
<trip id="87" depart="58.290000000000006" fromJunction="4way_28" toJunction="4way_21"/>
<trip id="88" depart="58.96" fromJunction="3way_4" toJunction="4way_45"/>
<trip id="89" depart="59.63" fromJunction="4way_44" toJunction="3way_89"/>
<trip id="90" depart="60.300000000000004" fromJunction="3way_92" toJunction="4way_83"/>
<trip id="91" depart="60.970000000000006" fromJunction="4way_34" toJunction="4way_28"/>
<trip id="92" depart="61.64" fromJunction="4way_14" toJunction="4way_43"/>
<trip id="93" depart="62.31" fromJunction="3way_30" toJunction="4way_75"/>
<trip id="94" depart="62.980000000000004" fromJunction="3way_94" toJunction="4way_71"/>
<trip id="95" depart="63.650000000000006" fromJunction="4way_38" toJunction="3way_97"/>
<trip id="96" depart="64.32000000000001" fromJunction="4way_82" toJunction="4way_75"/>
<trip id="97" depart="64.99000000000001" fromJunction="3way_80" toJunction="3way_93"/>
<trip id="98" depart="65.66000000000001" fromJunction="4way_22" toJunction="3way_6"/>
<trip id="99" depart="66.33" fromJunction="4way_35" toJunction="3way_30"/>
<trip id="100" depart="67.0" fromJunction="3way_97" toJunction="4way_51"/>
<trip id="101" depart="67.67" fromJunction="3way_7" toJunction="3way_3"/>
<trip id="102" depart="68.34" fromJunction="4way_42" toJunction="4way_25"/>
<trip id="103" depart="69.01" fromJunction="4way_77" toJunction="4way_43"/>
<trip id="104" depart="69.68" fromJunction="3way_94" toJunction="4way_88"/>
<trip id="105" depart="70.35000000000001" fromJunction="3way_70" toJunction="4way_84"/>
<trip id="106" depart="71.02000000000001" fromJunction="4way_16" toJunction="3way_2"/>
<trip id="107" depart="71.69" fromJunction="4way_51" toJunction="3way_20"/>
<trip id="108" depart="72.36" fromJunction="4way_86" toJunction="4way_14"/>
<trip id="109" depart="73.03" fromJunction="4way_47" toJunction="4way_54"/>
<trip id="110" depart="73.7" fromJunction="4way_56" toJunction="3way_60"/>
<trip id="111" depart="74.37" fromJunction="4way_48" toJunction="3way_97"/>
<trip id="112" depart="75.04" fromJunction="3way_94" toJunction="4way_25"/>
<trip id="113" depart="75.71000000000001" fromJunction="4way_75" toJunction="4way_38"/>
<trip id="114" depart="76.38000000000001" fromJunction="3way_94" toJunction="3way_80"/>
<trip id="115" depart="77.05000000000001" fromJunction="3way_3" toJunction="4way_23"/>
<trip id="116" depart="77.72" fromJunction="4way_12" toJunction="3way_95"/>
<trip id="117" depart="78.39" fromJunction="4way_52" toJunction="4way_41"/>
<trip id="118" depart="79.06" fromJunction="4way_14" toJunction="3way_60"/>
<trip id="119" depart="79.73" fromJunction="3way_49" toJunction="4way_37"/>
<trip id="120" depart="80.4" fromJunction="3way_59" toJunction="4way_23"/>
<trip id="121" depart="81.07000000000001" fromJunction="4way_71" toJunction="4way_55"/>
<trip id="122" depart="81.74000000000001" fromJunction="3way_97" toJunction="4way_73"/>
<trip id="123" depart="82.41000000000001" fromJunction="4way_72" toJunction="3way_69"/>
<trip id="124" depart="83.08" fromJunction="4way_38" toJunction="4way_31"/>
<trip id="125" depart="83.75" fromJunction="4way_85" toJunction="4way_26"/>
<trip id="126" depart="84.42" fromJunction="3way_19" toJunction="4way_77"/>
<trip id="127" depart="85.09" fromJunction="4way_14" toJunction="4way_63"/>
<trip id="128" depart="85.76" fromJunction="3way_40" toJunction="4way_58"/>
<trip id="129" depart="86.43" fromJunction="3way_29" toJunction="3way_91"/>
<trip id="130" depart="87.10000000000001" fromJunction="4way_28" toJunction="3way_2"/>
<trip id="131" depart="87.77000000000001" fromJunction="4way_46" toJunction="4way_15"/>
<trip id="132" depart="88.44000000000001" fromJunction="4way_14" toJunction="3way_50"/>
<trip id="133" depart="89.11" fromJunction="4way_72" toJunction="3way_7"/>
<trip id="134" depart="89.78" fromJunction="4way_57" toJunction="4way_68"/>
<trip id="135" depart="90.45" fromJunction="4way_58" toJunction="4way_11"/>
<trip id="136" depart="91.12" fromJunction="4way_48" toJunction="3way_92"/>
<trip id="137" depart="91.79" fromJunction="4way_56" toJunction="4way_38"/>
<trip id="138" depart="92.46000000000001" fromJunction="4way_47" toJunction="4way_54"/>
<trip id="139" depart="93.13000000000001" fromJunction="4way_27" toJunction="3way_40"/>
<trip id="140" depart="93.80000000000001" fromJunction="3way_2" toJunction="4way_44"/>
<trip id="141" depart="94.47" fromJunction="3way_79" toJunction="4way_21"/>
<trip id="142" depart="95.14" fromJunction="4way_62" toJunction="4way_78"/>
<trip id="143" depart="95.81" fromJunction="4way_64" toJunction="4way_82"/>
<trip id="144" depart="96.48" fromJunction="3way_69" toJunction="4way_41"/>
<trip id="145" depart="97.15" fromJunction="3way_96" toJunction="4way_76"/>
<trip id="146" depart="97.82000000000001" fromJunction="3way_93" toJunction="4way_23"/>
<trip id="147" depart="98.49000000000001" fromJunction="4way_37" toJunction="3way_29"/>
<trip id="148" depart="99.16000000000001" fromJunction="4way_58" toJunction="4way_68"/>
<trip id="149" depart="99.83000000000001" fromJunction="4way_36" toJunction="4way_87"/>
<trip id="150" depart="100.5" fromJunction="3way_8" toJunction="3way_10"/>
<trip id="151" depart="101.17" fromJunction="3way_92" toJunction="4way_81"/>
<trip id="152" depart="101.84" fromJunction="3way_6" toJunction="3way_59"/>
<trip id="153" depart="102.51" fromJunction="3way_2" toJunction="4way_65"/>
<trip id="154" depart="103.18" fromJunction="3way_79" toJunction="4way_26"/>
<trip id="155" depart="103.85000000000001" fromJunction="3way_19" toJunction="3way_8"/>
<trip id="156" depart="104.52000000000001" fromJunction="3way_91" toJunction="4way_15"/>
<trip id="157" depart="105.19000000000001" fromJunction="4way_63" toJunction="4way_12"/>
<trip id="158" depart="105.86" fromJunction="4way_65" toJunction="4way_37"/>
<trip id="159" depart="106.53" fromJunction="3way_59" toJunction="3way_70"/>
<trip id="160" depart="107.2" fromJunction="3way_40" toJunction="3way_6"/>
<trip id="161" depart="107.87" fromJunction="4way_42" toJunction="3way_70"/>
<trip id="162" depart="108.54" fromJunction="4way_35" toJunction="4way_25"/>
<trip id="163" depart="109.21000000000001" fromJunction="4way_51" toJunction="3way_50"/>
<trip id="164" depart="109.88000000000001" fromJunction="4way_46" toJunction="3way_97"/>
<trip id="165" depart="110.55000000000001" fromJunction="4way_35" toJunction="3way_6"/>
<trip id="166" depart="111.22000000000001" fromJunction="4way_41" toJunction="3way_80"/>
<trip id="167" depart="111.89" fromJunction="3way_60" toJunction="4way_14"/>
<trip id="168" depart="112.56" fromJunction="3way_96" toJunction="4way_41"/>
<trip id="169" depart="113.23" fromJunction="3way_5" toJunction="4way_52"/>
<trip id="170" depart="113.9" fromJunction="3way_8" toJunction="4way_56"/>
<trip id="171" depart="114.57000000000001" fromJunction="3way_30" toJunction="4way_23"/>
<trip id="172" depart="115.24000000000001" fromJunction="4way_58" toJunction="4way_83"/>
<trip id="173" depart="115.91000000000001" fromJunction="3way_4" toJunction="4way_64"/>
<trip id="174" depart="116.58000000000001" fromJunction="4way_13" toJunction="4way_22"/>
<trip id="175" depart="117.25" fromJunction="4way_25" toJunction="4way_43"/>
<trip id="176" depart="117.92" fromJunction="3way_59" toJunction="3way_60"/>
<trip id="177" depart="118.59" fromJunction="4way_48" toJunction="4way_61"/>
<trip id="178" depart="119.26" fromJunction="4way_77" toJunction="3way_97"/>
<trip id="179" depart="119.93" fromJunction="4way_42" toJunction="4way_53"/>
<trip id="180" depart="120.60000000000001" fromJunction="4way_52" toJunction="4way_57"/>
<trip id="181" depart="121.27000000000001" fromJunction="4way_71" toJunction="4way_65"/>
<trip id="182" depart="121.94000000000001" fromJunction="4way_35" toJunction="4way_77"/>
<trip id="183" depart="122.61000000000001" fromJunction="3way_10" toJunction="4way_45"/>
<trip id="184" depart="123.28" fromJunction="4way_64" toJunction="4way_16"/>
<trip id="185" depart="123.95" fromJunction="3way_89" toJunction="3way_91"/>
<trip id="186" depart="124.62" fromJunction="4way_58" toJunction="4way_56"/>
<trip id="187" depart="125.29" fromJunction="4way_14" toJunction="4way_42"/>
<trip id="188" depart="125.96000000000001" fromJunction="4way_42" toJunction="4way_37"/>
<trip id="189" depart="126.63000000000001" fromJunction="4way_83" toJunction="4way_48"/>
<trip id="190" depart="127.30000000000001" fromJunction="4way_87" toJunction="4way_76"/>
<trip id="191" depart="127.97000000000001" fromJunction="3way_89" toJunction="4way_76"/>
<trip id="192" depart="128.64000000000001" fromJunction="4way_71" toJunction="4way_54"/>
<trip id="193" depart="129.31" fromJunction="4way_12" toJunction="3way_7"/>
<trip id="194" depart="129.98000000000002" fromJunction="4way_27" toJunction="3way_80"/>
<trip id="195" depart="130.65" fromJunction="4way_58" toJunction="3way_4"/>
<trip id="196" depart="131.32000000000002" fromJunction="3way_97" toJunction="3way_2"/>
<trip id="197" depart="131.99" fromJunction="4way_28" toJunction="4way_71"/>
<trip id="198" depart="132.66" fromJunction="4way_38" toJunction="3way_29"/>
<trip id="199" depart="133.33" fromJunction="4way_42" toJunction="4way_47"/>
<trip id="200" depart="134.0" fromJunction="3way_92" toJunction="3way_10"/>
<trip id="201" depart="134.67000000000002" fromJunction="3way_4" toJunction="4way_34"/>
<trip id="202" depart="135.34" fromJunction="4way_22" toJunction="3way_2"/>
<trip id="203" depart="136.01000000000002" fromJunction="3way_80" toJunction="3way_7"/>
<trip id="204" depart="136.68" fromJunction="3way_80" toJunction="3way_93"/>
<trip id="205" depart="137.35" fromJunction="3way_2" toJunction="3way_59"/>
<trip id="206" depart="138.02" fromJunction="4way_44" toJunction="3way_49"/>
<trip id="207" depart="138.69" fromJunction="4way_88" toJunction="4way_68"/>
<trip id="208" depart="139.36" fromJunction="3way_89" toJunction="4way_81"/>
<trip id="209" depart="140.03" fromJunction="4way_82" toJunction="4way_64"/>
<trip id="210" depart="140.70000000000002" fromJunction="3way_7" toJunction="4way_78"/>
<trip id="211" depart="141.37" fromJunction="3way_50" toJunction="4way_46"/>
<trip id="212" depart="142.04000000000002" fromJunction="4way_84" toJunction="3way_91"/>
<trip id="213" depart="142.71" fromJunction="4way_84" toJunction="3way_91"/>
<trip id="214" depart="143.38" fromJunction="4way_12" toJunction="4way_23"/>
<trip id="215" depart="144.05" fromJunction="3way_50" toJunction="4way_63"/>
<trip id="216" depart="144.72" fromJunction="4way_81" toJunction="4way_45"/>
<trip id="217" depart="145.39000000000001" fromJunction="4way_86" toJunction="4way_31"/>
<trip id="218" depart="146.06" fromJunction="3way_5" toJunction="4way_18"/>
<trip id="219" depart="146.73000000000002" fromJunction="4way_21" toJunction="3way_92"/>
<trip id="220" depart="147.4" fromJunction="4way_78" toJunction="4way_76"/>
<trip id="221" depart="148.07000000000002" fromJunction="4way_77" toJunction="4way_68"/>
<trip id="222" depart="148.74" fromJunction="4way_88" toJunction="3way_40"/>
<trip id="223" depart="149.41" fromJunction="3way_39" toJunction="3way_91"/>
<trip id="224" depart="150.08" fromJunction="3way_92" toJunction="4way_48"/>
<trip id="225" depart="150.75" fromJunction="3way_6" toJunction="4way_35"/>
<trip id="226" depart="151.42000000000002" fromJunction="4way_57" toJunction="4way_75"/>
<trip id="227" depart="152.09" fromJunction="4way_51" toJunction="3way_60"/>
<trip id="228" depart="152.76000000000002" fromJunction="4way_85" toJunction="4way_41"/>
<trip id="229" depart="153.43" fromJunction="3way_98" toJunction="3way_92"/>
<trip id="230" depart="154.10000000000002" fromJunction="3way_30" toJunction="4way_42"/>
<trip id="231" depart="154.77" fromJunction="3way_92" toJunction="4way_17"/>
<trip id="232" depart="155.44" fromJunction="4way_38" toJunction="4way_13"/>
<trip id="233" depart="156.11" fromJunction="4way_47" toJunction="4way_54"/>
<trip id="234" depart="156.78" fromJunction="4way_16" toJunction="4way_38"/>
<trip id="235" depart="157.45000000000002" fromJunction="4way_58" toJunction="4way_45"/>
<trip id="236" depart="158.12" fromJunction="4way_42" toJunction="4way_88"/>
<trip id="237" depart="158.79000000000002" fromJunction="3way_40" toJunction="3way_7"/>
<trip id="238" depart="159.46" fromJunction="4way_12" toJunction="3way_79"/>
<trip id="239" depart="160.13" fromJunction="4way_24" toJunction="3way_59"/>
<trip id="240" depart="160.8" fromJunction="4way_67" toJunction="4way_51"/>
<trip id="241" depart="161.47" fromJunction="4way_53" toJunction="4way_58"/>
<trip id="242" depart="162.14000000000001" fromJunction="4way_14" toJunction="3way_60"/>
<trip id="243" depart="162.81" fromJunction="4way_81" toJunction="4way_77"/>
<trip id="244" depart="163.48000000000002" fromJunction="3way_60" toJunction="4way_53"/>
<trip id="245" depart="164.15" fromJunction="4way_71" toJunction="4way_42"/>
<trip id="246" depart="164.82000000000002" fromJunction="4way_13" toJunction="3way_91"/>
<trip id="247" depart="165.49" fromJunction="4way_41" toJunction="3way_30"/>
<trip id="248" depart="166.16" fromJunction="4way_16" toJunction="4way_33"/>
<trip id="249" depart="166.83" fromJunction="4way_18" toJunction="4way_11"/>
<trip id="250" depart="167.5" fromJunction="3way_5" toJunction="4way_37"/>
<trip id="251" depart="168.17000000000002" fromJunction="4way_32" toJunction="3way_80"/>
<trip id="252" depart="168.84" fromJunction="4way_21" toJunction="3way_39"/>
<trip id="253" depart="169.51000000000002" fromJunction="4way_25" toJunction="4way_85"/>
<trip id="254" depart="170.18" fromJunction="4way_55" toJunction="4way_44"/>
<trip id="255" depart="170.85000000000002" fromJunction="4way_11" toJunction="3way_95"/>
<trip id="256" depart="171.52" fromJunction="4way_57" toJunction="4way_15"/>
<trip id="257" depart="172.19" fromJunction="3way_50" toJunction="4way_53"/>
<trip id="258" depart="172.86" fromJunction="4way_55" toJunction="3way_3"/>
<trip id="259" depart="173.53" fromJunction="4way_41" toJunction="3way_1"/>
<trip id="260" depart="174.20000000000002" fromJunction="4way_18" toJunction="4way_33"/>
<trip id="261" depart="174.87" fromJunction="4way_71" toJunction="3way_19"/>
<trip id="262" depart="175.54000000000002" fromJunction="4way_11" toJunction="3way_3"/>
<trip id="263" depart="176.21" fromJunction="3way_60" toJunction="4way_44"/>
<trip id="264" depart="176.88000000000002" fromJunction="3way_49" toJunction="3way_94"/>
<trip id="265" depart="177.55" fromJunction="4way_35" toJunction="4way_83"/>
<trip id="266" depart="178.22" fromJunction="4way_48" toJunction="4way_15"/>
<trip id="267" depart="178.89000000000001" fromJunction="4way_74" toJunction="3way_1"/>
<trip id="268" depart="179.56" fromJunction="4way_14" toJunction="4way_24"/>
<trip id="269" depart="180.23000000000002" fromJunction="3way_2" toJunction="4way_58"/>
<trip id="270" depart="180.9" fromJunction="4way_76" toJunction="4way_35"/>
<trip id="271" depart="181.57000000000002" fromJunction="4way_11" toJunction="4way_13"/>
<trip id="272" depart="182.24" fromJunction="3way_29" toJunction="4way_46"/>
<trip id="273" depart="182.91000000000003" fromJunction="4way_23" toJunction="4way_32"/>
<trip id="274" depart="183.58" fromJunction="3way_19" toJunction="4way_35"/>
<trip id="275" depart="184.25" fromJunction="4way_81" toJunction="3way_93"/>
<trip id="276" depart="184.92000000000002" fromJunction="4way_67" toJunction="4way_44"/>
<trip id="277" depart="185.59" fromJunction="3way_59" toJunction="4way_44"/>
<trip id="278" depart="186.26000000000002" fromJunction="4way_47" toJunction="4way_78"/>
<trip id="279" depart="186.93" fromJunction="4way_18" toJunction="4way_13"/>
<trip id="280" depart="187.60000000000002" fromJunction="4way_18" toJunction="4way_43"/>
<trip id="281" depart="188.27" fromJunction="4way_58" toJunction="4way_86"/>
<trip id="282" depart="188.94" fromJunction="3way_4" toJunction="4way_18"/>
<trip id="283" depart="189.61" fromJunction="4way_61" toJunction="3way_98"/>
<trip id="284" depart="190.28" fromJunction="3way_40" toJunction="4way_48"/>
<trip id="285" depart="190.95000000000002" fromJunction="4way_67" toJunction="3way_89"/>
<trip id="286" depart="191.62" fromJunction="4way_87" toJunction="4way_32"/>
<trip id="287" depart="192.29000000000002" fromJunction="4way_84" toJunction="3way_89"/>
<trip id="288" depart="192.96" fromJunction="3way_8" toJunction="4way_32"/>
<trip id="289" depart="193.63000000000002" fromJunction="3way_91" toJunction="4way_35"/>
<trip id="290" depart="194.3" fromJunction="3way_6" toJunction="3way_4"/>
<trip id="291" depart="194.97" fromJunction="4way_87" toJunction="3way_6"/>
<trip id="292" depart="195.64000000000001" fromJunction="4way_77" toJunction="4way_85"/>
<trip id="293" depart="196.31" fromJunction="4way_33" toJunction="4way_15"/>
<trip id="294" depart="196.98000000000002" fromJunction="4way_88" toJunction="3way_30"/>
<trip id="295" depart="197.65" fromJunction="4way_62" toJunction="4way_31"/>
<trip id="296" depart="198.32000000000002" fromJunction="4way_78" toJunction="4way_51"/>
<trip id="297" depart="198.99" fromJunction="3way_10" toJunction="3way_98"/>
<trip id="298" depart="199.66000000000003" fromJunction="3way_7" toJunction="4way_25"/>
<trip id="299" depart="200.33" fromJunction="4way_62" toJunction="4way_34"/>
<trip id="300" depart="201.0" fromJunction="3way_92" toJunction="3way_50"/>
<trip id="301" depart="201.67000000000002" fromJunction="4way_41" toJunction="4way_23"/>
<trip id="302" depart="202.34" fromJunction="4way_11" toJunction="4way_42"/>
<trip id="303" depart="203.01000000000002" fromJunction="3way_59" toJunction="4way_68"/>
<trip id="304" depart="203.68" fromJunction="4way_11" toJunction="3way_29"/>
<trip id="305" depart="204.35000000000002" fromJunction="4way_84" toJunction="4way_14"/>
<trip id="306" depart="205.02" fromJunction="4way_88" toJunction="4way_71"/>
<trip id="307" depart="205.69000000000003" fromJunction="4way_65" toJunction="4way_21"/>
<trip id="308" depart="206.36" fromJunction="4way_76" toJunction="4way_64"/>
<trip id="309" depart="207.03" fromJunction="4way_67" toJunction="4way_68"/>
<trip id="310" depart="207.70000000000002" fromJunction="4way_45" toJunction="4way_26"/>
<trip id="311" depart="208.37" fromJunction="3way_79" toJunction="4way_11"/>
<trip id="312" depart="209.04000000000002" fromJunction="3way_91" toJunction="3way_7"/>
<trip id="313" depart="209.71" fromJunction="4way_33" toJunction="4way_22"/>
<trip id="314" depart="210.38000000000002" fromJunction="4way_58" toJunction="4way_36"/>
<trip id="315" depart="211.05" fromJunction="3way_39" toJunction="3way_49"/>
<trip id="316" depart="211.72" fromJunction="4way_85" toJunction="4way_14"/>
<trip id="317" depart="212.39000000000001" fromJunction="4way_28" toJunction="4way_27"/>
<trip id="318" depart="213.06" fromJunction="4way_71" toJunction="4way_78"/>
<trip id="319" depart="213.73000000000002" fromJunction="3way_79" toJunction="4way_51"/>
<trip id="320" depart="214.4" fromJunction="4way_84" toJunction="4way_25"/>
<trip id="321" depart="215.07000000000002" fromJunction="3way_29" toJunction="4way_37"/>
<trip id="322" depart="215.74" fromJunction="4way_83" toJunction="4way_82"/>
<trip id="323" depart="216.41000000000003" fromJunction="3way_98" toJunction="3way_91"/>
<trip id="324" depart="217.08" fromJunction="3way_6" toJunction="4way_37"/>
<trip id="325" depart="217.75" fromJunction="3way_49" toJunction="4way_62"/>
<trip id="326" depart="218.42000000000002" fromJunction="4way_78" toJunction="4way_42"/>
<trip id="327" depart="219.09" fromJunction="4way_37" toJunction="4way_12"/>
<trip id="328" depart="219.76000000000002" fromJunction="3way_60" toJunction="3way_49"/>
<trip id="329" depart="220.43" fromJunction="4way_21" toJunction="4way_15"/>
<trip id="330" depart="221.10000000000002" fromJunction="4way_64" toJunction="4way_55"/>
<trip id="331" depart="221.77" fromJunction="4way_22" toJunction="4way_71"/>
<trip id="332" depart="222.44000000000003" fromJunction="3way_7" toJunction="4way_34"/>
<trip id="333" depart="223.11" fromJunction="4way_74" toJunction="4way_76"/>
<trip id="334" depart="223.78" fromJunction="4way_43" toJunction="4way_65"/>
<trip id="335" depart="224.45000000000002" fromJunction="4way_71" toJunction="3way_39"/>
<trip id="336" depart="225.12" fromJunction="3way_20" toJunction="4way_71"/>
<trip id="337" depart="225.79000000000002" fromJunction="4way_75" toJunction="3way_3"/>
<trip id="338" depart="226.46" fromJunction="4way_34" toJunction="3way_39"/>
<trip id="339" depart="227.13000000000002" fromJunction="4way_54" toJunction="4way_45"/>
<trip id="340" depart="227.8" fromJunction="3way_29" toJunction="4way_58"/>
<trip id="341" depart="228.47000000000003" fromJunction="3way_3" toJunction="4way_47"/>
<trip id="342" depart="229.14000000000001" fromJunction="4way_71" toJunction="4way_43"/>
<trip id="343" depart="229.81" fromJunction="4way_41" toJunction="4way_33"/>
<trip id="344" depart="230.48000000000002" fromJunction="3way_2" toJunction="3way_96"/>
<trip id="345" depart="231.15" fromJunction="4way_17" toJunction="4way_23"/>
<trip id="346" depart="231.82000000000002" fromJunction="3way_93" toJunction="4way_41"/>
<trip id="347" depart="232.49" fromJunction="3way_19" toJunction="3way_8"/>
<trip id="348" depart="233.16000000000003" fromJunction="3way_29" toJunction="3way_93"/>
<trip id="349" depart="233.83" fromJunction="3way_7" toJunction="3way_70"/>
<trip id="350" depart="234.5" fromJunction="4way_37" toJunction="3way_7"/>
<trip id="351" depart="235.17000000000002" fromJunction="4way_63" toJunction="3way_89"/>
<trip id="352" depart="235.84" fromJunction="4way_42" toJunction="4way_36"/>
<trip id="353" depart="236.51000000000002" fromJunction="3way_95" toJunction="3way_79"/>
<trip id="354" depart="237.18" fromJunction="4way_33" toJunction="4way_22"/>
<trip id="355" depart="237.85000000000002" fromJunction="4way_46" toJunction="4way_21"/>
<trip id="356" depart="238.52" fromJunction="4way_28" toJunction="4way_16"/>
<trip id="357" depart="239.19000000000003" fromJunction="4way_67" toJunction="3way_3"/>
<trip id="358" depart="239.86" fromJunction="4way_57" toJunction="4way_61"/>
<trip id="359" depart="240.53" fromJunction="4way_78" toJunction="4way_35"/>
<trip id="360" depart="241.20000000000002" fromJunction="4way_31" toJunction="4way_16"/>
<trip id="361" depart="241.87" fromJunction="4way_51" toJunction="4way_13"/>
<trip id="362" depart="242.54000000000002" fromJunction="3way_70" toJunction="4way_41"/>
<trip id="363" depart="243.21" fromJunction="4way_25" toJunction="4way_82"/>
<trip id="364" depart="243.88000000000002" fromJunction="4way_33" toJunction="3way_60"/>
<trip id="365" depart="244.55" fromJunction="3way_89" toJunction="3way_49"/>
<trip id="366" depart="245.22000000000003" fromJunction="4way_68" toJunction="3way_5"/>
<trip id="367" depart="245.89000000000001" fromJunction="3way_97" toJunction="3way_1"/>
<trip id="368" depart="246.56" fromJunction="3way_8" toJunction="4way_34"/>