<routes xmlns:xsi="http://www.w3.org/2001/XMLSchema-instance" xsi:noNamespaceSchemaLocation="http://sumo.dlr.de/xsd/routes_file.xsd">
<trip id="0" depart="0.0" fromJunction="4way_55" toJunction="4way_53"/>
<trip id="1" depart="0.1666" fromJunction="4way_53" toJunction="4way_24"/>
<trip id="2" depart="0.3332" fromJunction="4way_74" toJunction="4way_12"/>
<trip id="3" depart="0.4998" fromJunction="4way_67" toJunction="4way_32"/>
<trip id="4" depart="0.6664" fromJunction="4way_51" toJunction="4way_58"/>
<trip id="5" depart="0.833" fromJunction="4way_33" toJunction="4way_56"/>
<trip id="6" depart="0.9996" fromJunction="4way_18" toJunction="4way_73"/>
<trip id="7" depart="1.1662" fromJunction="3way_19" toJunction="3way_7"/>
<trip id="8" depart="1.3328" fromJunction="4way_86" toJunction="3way_2"/>
<trip id="9" depart="1.4994" fromJunction="4way_47" toJunction="4way_36"/>
<trip id="10" depart="1.666" fromJunction="4way_56" toJunction="4way_68"/>
<trip id="11" depart="1.8326" fromJunction="4way_36" toJunction="4way_52"/>
<trip id="12" depart="1.9992" fromJunction="4way_64" toJunction="3way_49"/>
<trip id="13" depart="2.1658" fromJunction="4way_38" toJunction="3way_69"/>
<trip id="14" depart="2.3324" fromJunction="4way_81" toJunction="4way_33"/>
<trip id="15" depart="2.499" fromJunction="4way_36" toJunction="3way_70"/>
<trip id="16" depart="2.6656" fromJunction="4way_73" toJunction="4way_42"/>
<trip id="17" depart="2.8322" fromJunction="4way_44" toJunction="3way_2"/>
<trip id="18" depart="2.9988" fromJunction="4way_44" toJunction="4way_34"/>
<trip id="19" depart="3.1654" fromJunction="4way_25" toJunction="4way_38"/>
<trip id="20" depart="3.332" fromJunction="4way_22" toJunction="4way_31"/>
<trip id="21" depart="3.4986" fromJunction="3way_6" toJunction="4way_35"/>
<trip id="22" depart="3.6652" fromJunction="3way_59" toJunction="3way_94"/>
<trip id="23" depart="3.8318" fromJunction="4way_31" toJunction="3way_20"/>
<trip id="24" depart="3.9984" fromJunction="4way_32" toJunction="4way_73"/>
<trip id="25" depart="4.165" fromJunction="3way_29" toJunction="4way_78"/>
<trip id="26" depart="4.3316" fromJunction="3way_89" toJunction="3way_94"/>
<trip id="27" depart="4.4982" fromJunction="3way_80" toJunction="4way_74"/>
<trip id="28" depart="4.6648" fromJunction="3way_91" toJunction="4way_52"/>
<trip id="29" depart="4.8314" fromJunction="3way_39" toJunction="3way_89"/>
<trip id="30" depart="4.998" fromJunction="3way_69" toJunction="4way_84"/>
<trip id="31" depart="5.1646" fromJunction="4way_41" toJunction="3way_96"/>
<trip id="32" depart="5.3312" fromJunction="3way_29" toJunction="4way_76"/>
<trip id="33" depart="5.4978" fromJunction="3way_29" toJunction="4way_17"/>
<trip id="34" depart="5.6644" fromJunction="4way_52" toJunction="4way_68"/>
<trip id="35" depart="5.8309999999999995" fromJunction="4way_34" toJunction="4way_68"/>
<trip id="36" depart="5.9976" fromJunction="3way_4" toJunction="4way_75"/>
<trip id="37" depart="6.1642" fromJunction="3way_49" toJunction="3way_50"/>
<trip id="38" depart="6.3308" fromJunction="3way_49" toJunction="3way_40"/>
<trip id="39" depart="6.4974" fromJunction="4way_81" toJunction="3way_20"/>
<trip id="40" depart="6.664" fromJunction="4way_35" toJunction="3way_7"/>
<trip id="41" depart="6.8306" fromJunction="3way_70" toJunction="4way_73"/>
<trip id="42" depart="6.9972" fromJunction="3way_29" toJunction="4way_33"/>
<trip id="43" depart="7.1638" fromJunction="4way_28" toJunction="4way_83"/>
<trip id="44" depart="7.3304" fromJunction="4way_15" toJunction="3way_20"/>
<trip id="45" depart="7.497" fromJunction="4way_55" toJunction="3way_59"/>
<trip id="46" depart="7.6636" fromJunction="3way_97" toJunction="3way_50"/>
<trip id="47" depart="7.8302" fromJunction="3way_2" toJunction="4way_14"/>
<trip id="48" depart="7.9968" fromJunction="3way_1" toJunction="4way_86"/>
<trip id="49" depart="8.1634" fromJunction="3way_70" toJunction="4way_25"/>
<trip id="50" depart="8.33" fromJunction="4way_58" toJunction="4way_75"/>
<trip id="51" depart="8.496599999999999" fromJunction="4way_83" toJunction="3way_91"/>
<trip id="52" depart="8.6632" fromJunction="4way_73" toJunction="4way_14"/>
<trip id="53" depart="8.8298" fromJunction="4way_48" toJunction="3way_93"/>
<trip id="54" depart="8.9964" fromJunction="4way_27" toJunction="4way_32"/>
<trip id="55" depart="9.163" fromJunction="3way_40" toJunction="4way_45"/>
<trip id="56" depart="9.3296" fromJunction="4way_71" toJunction="4way_76"/>
<trip id="57" depart="9.4962" fromJunction="4way_83" toJunction="4way_57"/>
<trip id="58" depart="9.6628" fromJunction="4way_35" toJunction="4way_57"/>
<trip id="59" depart="9.8294" fromJunction="4way_13" toJunction="4way_65"/>
<trip id="60" depart="9.996" fromJunction="4way_64" toJunction="4way_48"/>
<trip id="61" depart="10.1626" fromJunction="4way_34" toJunction="4way_12"/>
<trip id="62" depart="10.3292" fromJunction="3way_40" toJunction="3way_2"/>
<trip id="63" depart="10.4958" fromJunction="3way_50" toJunction="4way_84"/>
<trip id="64" depart="10.6624" fromJunction="4way_22" toJunction="4way_44"/>
<trip id="65" depart="10.829" fromJunction="3way_40" toJunction="3way_69"/>
<trip id="66" depart="10.9956" fromJunction="4way_14" toJunction="4way_73"/>
<trip id="67" depart="11.1622" fromJunction="4way_74" toJunction="4way_83"/>
<trip id="68" depart="11.3288" fromJunction="4way_22" toJunction="4way_74"/>
<trip id="69" depart="11.4954" fromJunction="4way_41" toJunction="4way_77"/>
<trip id="70" depart="11.661999999999999" fromJunction="4way_67" toJunction="4way_22"/>
<trip id="71" depart="11.8286" fromJunction="4way_45" toJunction="4way_66"/>
<trip id="72" depart="11.9952" fromJunction="4way_18" toJunction="3way_29"/>
<trip id="73" depart="12.1618" fromJunction="4way_88" toJunction="4way_55"/>
<trip id="74" depart="12.3284" fromJunction="4way_47" toJunction="3way_79"/>
<trip id="75" depart="12.495" fromJunction="4way_44" toJunction="3way_89"/>
<trip id="76" depart="12.6616" fromJunction="4way_27" toJunction="3way_49"/>
<trip id="77" depart="12.8282" fromJunction="4way_73" toJunction="4way_66"/>
<trip id="78" depart="12.9948" fromJunction="3way_7" toJunction="4way_81"/>
<trip id="79" depart="13.1614" fromJunction="4way_42" toJunction="4way_35"/>
<trip id="80" depart="13.328" fromJunction="4way_47" toJunction="4way_65"/>
<trip id="81" depart="13.4946" fromJunction="4way_37" toJunction="4way_68"/>
<trip id="82" depart="13.6612" fromJunction="4way_31" toJunction="3way_2"/>
<trip id="83" depart="13.8278" fromJunction="3way_98" toJunction="4way_75"/>
<trip id="84" depart="13.9944" fromJunction="3way_6" toJunction="4way_33"/>
<trip id="85" depart="14.161" fromJunction="3way_2" toJunction="3way_95"/>
<trip id="86" depart="14.3276" fromJunction="3way_93" toJunction="4way_56"/>
<trip id="87" depart="14.4942" fromJunction="4way_28" toJunction="4way_21"/>
<trip id="88" depart="14.6608" fromJunction="3way_4" toJunction="4way_45"/>
<trip id="89" depart="14.827399999999999" fromJunction="4way_44" toJunction="3way_89"/>
<trip id="90" depart="14.994" fromJunction="3way_92" toJunction="4way_83"/>
<trip id="91" depart="15.1606" fromJunction="4way_34" toJunction="4way_28"/>
<trip id="92" depart="15.3272" fromJunction="4way_14" toJunction="4way_43"/>
<trip id="93" depart="15.4938" fromJunction="3way_30" toJunction="4way_75"/>
<trip id="94" depart="15.6604" fromJunction="3way_94" toJunction="4way_71"/>
<trip id="95" depart="15.827" fromJunction="4way_38" toJunction="3way_97"/>
<trip id="96" depart="15.9936" fromJunction="4way_82" toJunction="4way_75"/>
<trip id="97" depart="16.1602" fromJunction="3way_80" toJunction="3way_93"/>
<trip id="98" depart="16.3268" fromJunction="4way_22" toJunction="3way_6"/>
<trip id="99" depart="16.4934" fromJunction="4way_35" toJunction="3way_30"/>
<trip id="100" depart="16.66" fromJunction="3way_97" toJunction="4way_51"/>
<trip id="101" depart="16.8266" fromJunction="3way_7" toJunction="3way_3"/>
<trip id="102" depart="16.993199999999998" fromJunction="4way_42" toJunction="4way_25"/>
<trip id="103" depart="17.1598" fromJunction="4way_77" toJunction="4way_43"/>
<trip id="104" depart="17.3264" fromJunction="3way_94" toJunction="4way_88"/>
<trip id="105" depart="17.493" fromJunction="3way_70" toJunction="4way_84"/>
<trip id="106" depart="17.6596" fromJunction="4way_16" toJunction="3way_2"/>
<trip id="107" depart="17.8262" fromJunction="4way_51" toJunction="3way_20"/>
<trip id="108" depart="17.9928" fromJunction="4way_86" toJunction="4way_14"/>
<trip id="109" depart="18.1594" fromJunction="4way_47" toJunction="4way_54"/>
<trip id="110" depart="18.326" fromJunction="4way_56" toJunction="3way_60"/>
<trip id="111" depart="18.4926" fromJunction="4way_48" toJunction="3way_97"/>
<trip id="112" depart="18.6592" fromJunction="3way_94" toJunction="4way_25"/>
<trip id="113" depart="18.8258" fromJunction="4way_75" toJunction="4way_38"/>
<trip id="114" depart="18.9924" fromJunction="3way_94" toJunction="3way_80"/>
<trip id="115" depart="19.159" fromJunction="3way_3" toJunction="4way_23"/>
<trip id="116" depart="19.3256" fromJunction="4way_12" toJunction="3way_95"/>
<trip id="117" depart="19.4922" fromJunction="4way_52" toJunction="4way_41"/>
<trip id="118" depart="19.6588" fromJunction="4way_14" toJunction="3way_60"/>
<trip id="119" depart="19.8254" fromJunction="3way_49" toJunction="4way_37"/>
<trip id="120" depart="19.992" fromJunction="3way_59" toJunction="4way_23"/>
<trip id="121" depart="20.1586" fromJunction="4way_71" toJunction="4way_55"/>
<trip id="122" depart="20.3252" fromJunction="3way_97" toJunction="4way_73"/>
<trip id="123" depart="20.4918" fromJunction="4way_72" toJunction="3way_69"/>
<trip id="124" depart="20.6584" fromJunction="4way_38" toJunction="4way_31"/>
<trip id="125" depart="20.825" fromJunction="4way_85" toJunction="4way_26"/>
<trip id="126" depart="20.9916" fromJunction="3way_19" toJunction="4way_77"/>
<trip id="127" depart="21.1582" fromJunction="4way_14" toJunction="4way_63"/>
<trip id="128" depart="21.3248" fromJunction="3way_40" toJunction="4way_58"/>
<trip id="129" depart="21.4914" fromJunction="3way_29" toJunction="3way_91"/>
<trip id="130" depart="21.658" fromJunction="4way_28" toJunction="3way_2"/>
<trip id="131" depart="21.8246" fromJunction="4way_46" toJunction="4way_15"/>
<trip id="132" depart="21.9912" fromJunction="4way_14" toJunction="3way_50"/>
<trip id="133" depart="22.157799999999998" fromJunction="4way_72" toJunction="3way_7"/>
<trip id="134" depart="22.3244" fromJunction="4way_57" toJunction="4way_68"/>
<trip id="135" depart="22.491" fromJunction="4way_58" toJunction="4way_11"/>
<trip id="136" depart="22.6576" fromJunction="4way_48" toJunction="3way_92"/>
<trip id="137" depart="22.8242" fromJunction="4way_56" toJunction="4way_38"/>
<trip id="138" depart="22.9908" fromJunction="4way_47" toJunction="4way_54"/>
<trip id="139" depart="23.1574" fromJunction="4way_27" toJunction="3way_40"/>
<trip id="140" depart="23.323999999999998" fromJunction="3way_2" toJunction="4way_44"/>
<trip id="141" depart="23.4906" fromJunction="3way_79" toJunction="4way_21"/>
<trip id="142" depart="23.6572" fromJunction="4way_62" toJunction="4way_78"/>
<trip id="143" depart="23.8238" fromJunction="4way_64" toJunction="4way_82"/>
<trip id="144" depart="23.9904" fromJunction="3way_69" toJunction="4way_41"/>
<trip id="145" depart="24.157" fromJunction="3way_96" toJunction="4way_76"/>
<trip id="146" depart="24.3236" fromJunction="3way_93" toJunction="4way_23"/>
<trip id="147" depart="24.490199999999998" fromJunction="4way_37" toJunction="3way_29"/>
<trip id="148" depart="24.6568" fromJunction="4way_58" toJunction="4way_68"/>
<trip id="149" depart="24.8234" fromJunction="4way_36" toJunction="4way_87"/>
<trip id="150" depart="24.99" fromJunction="3way_8" toJunction="3way_10"/>
<trip id="151" depart="25.1566" fromJunction="3way_92" toJunction="4way_81"/>
<trip id="152" depart="25.3232" fromJunction="3way_6" toJunction="3way_59"/>
<trip id="153" depart="25.4898" fromJunction="3way_2" toJunction="4way_65"/>
<trip id="154" depart="25.6564" fromJunction="3way_79" toJunction="4way_26"/>
<trip id="155" depart="25.823" fromJunction="3way_19" toJunction="3way_8"/>
<trip id="156" depart="25.9896" fromJunction="3way_91" toJunction="4way_15"/>
<trip id="157" depart="26.1562" fromJunction="4way_63" toJunction="4way_12"/>
<trip id="158" depart="26.3228" fromJunction="4way_65" toJunction="4way_37"/>
<trip id="159" depart="26.4894" fromJunction="3way_59" toJunction="3way_70"/>
<trip id="160" depart="26.656" fromJunction="3way_40" toJunction="3way_6"/>
<trip id="161" depart="26.8226" fromJunction="4way_42" toJunction="3way_70"/>
<trip id="162" depart="26.9892" fromJunction="4way_35" toJunction="4way_25"/>
<trip id="163" depart="27.1558" fromJunction="4way_51" toJunction="3way_50"/>
<trip id="164" depart="27.3224" fromJunction="4way_46" toJunction="3way_97"/>
<trip id="165" depart="27.489" fromJunction="4way_35" toJunction="3way_6"/>
<trip id="166" depart="27.6556" fromJunction="4way_41" toJunction="3way_80"/>
<trip id="167" depart="27.8222" fromJunction="3way_60" toJunction="4way_14"/>
<trip id="168" depart="27.9888" fromJunction="3way_96" toJunction="4way_41"/>
<trip id="169" depart="28.1554" fromJunction="3way_5" toJunction="4way_52"/>
<trip id="170" depart="28.322" fromJunction="3way_8" toJunction="4way_56"/>
<trip id="171" depart="28.488599999999998" fromJunction="3way_30" toJunction="4way_23"/>
<trip id="172" depart="28.6552" fromJunction="4way_58" toJunction="4way_83"/>
<trip id="173" depart="28.8218" fromJunction="3way_4" toJunction="4way_64"/>
<trip id="174" depart="28.9884" fromJunction="4way_13" toJunction="4way_22"/>
<trip id="175" depart="29.155" fromJunction="4way_25" toJunction="4way_43"/>
<trip id="176" depart="29.3216" fromJunction="3way_59" toJunction="3way_60"/>
<trip id="177" depart="29.4882" fromJunction="4way_48" toJunction="4way_61"/>
<trip id="178" depart="29.654799999999998" fromJunction="4way_77" toJunction="3way_97"/>
<trip id="179" depart="29.8214" fromJunction="4way_42" toJunction="4way_53"/>
<trip id="180" depart="29.988" fromJunction="4way_52" toJunction="4way_57"/>
<trip id="181" depart="30.1546" fromJunction="4way_71" toJunction="4way_65"/>
<trip id="182" depart="30.3212" fromJunction="4way_35" toJunction="4way_77"/>
<trip id="183" depart="30.4878" fromJunction="3way_10" toJunction="4way_45"/>
<trip id="184" depart="30.6544" fromJunction="4way_64" toJunction="4way_16"/>
<trip id="185" depart="30.820999999999998" fromJunction="3way_89" toJunction="3way_91"/>
<trip id="186" depart="30.9876" fromJunction="4way_58" toJunction="4way_56"/>
<trip id="187" depart="31.1542" fromJunction="4way_14" toJunction="4way_42"/>
<trip id="188" depart="31.3208" fromJunction="4way_42" toJunction="4way_37"/>
<trip id="189" depart="31.4874" fromJunction="4way_83" toJunction="4way_48"/>
<trip id="190" depart="31.654" fromJunction="4way_87" toJunction="4way_76"/>
<trip id="191" depart="31.8206" fromJunction="3way_89" toJunction="4way_76"/>
<trip id="192" depart="31.9872" fromJunction="4way_71" toJunction="4way_54"/>
<trip id="193" depart="32.1538" fromJunction="4way_12" toJunction="3way_7"/>
<trip id="194" depart="32.3204" fromJunction="4way_27" toJunction="3way_80"/>
<trip id="195" depart="32.487" fromJunction="4way_58" toJunction="3way_4"/>
<trip id="196" depart="32.6536" fromJunction="3way_97" toJunction="3way_2"/>
<trip id="197" depart="32.8202" fromJunction="4way_28" toJunction="4way_71"/>
<trip id="198" depart="32.9868" fromJunction="4way_38" toJunction="3way_29"/>
<trip id="199" depart="33.1534" fromJunction="4way_42" toJunction="4way_47"/>
<trip id="200" depart="33.32" fromJunction="3way_92" toJunction="3way_10"/>
<trip id="201" depart="33.4866" fromJunction="3way_4" toJunction="4way_34"/>
<trip id="202" depart="33.6532" fromJunction="4way_22" toJunction="3way_2"/>
<trip id="203" depart="33.8198" fromJunction="3way_80" toJunction="3way_7"/>
<trip id="204" depart="33.986399999999996" fromJunction="3way_80" toJunction="3way_93"/>
<trip id="205" depart="34.153" fromJunction="3way_2" toJunction="3way_59"/>
<trip id="206" depart="34.3196" fromJunction="4way_44" toJunction="3way_49"/>
<trip id="207" depart="34.4862" fromJunction="4way_88" toJunction="4way_68"/>
<trip id="208" depart="34.6528" fromJunction="3way_89" toJunction="4way_81"/>
<trip id="209" depart="34.8194" fromJunction="4way_82" toJunction="4way_64"/>
<trip id="210" depart="34.986" fromJunction="3way_7" toJunction="4way_78"/>
<trip id="211" depart="35.1526" fromJunction="3way_50" toJunction="4way_46"/>
<trip id="212" depart="35.3192" fromJunction="4way_84" toJunction="3way_91"/>
<trip id="213" depart="35.4858" fromJunction="4way_84" toJunction="3way_91"/>
<trip id="214" depart="35.6524" fromJunction="4way_12" toJunction="4way_23"/>
<trip id="215" depart="35.819" fromJunction="3way_50" toJunction="4way_63"/>
<trip id="216" depart="35.9856" fromJunction="4way_81" toJunction="4way_45"/>
<trip id="217" depart="36.1522" fromJunction="4way_86" toJunction="4way_31"/>
<trip id="218" depart="36.3188" fromJunction="3way_5" toJunction="4way_18"/>
<trip id="219" depart="36.4854" fromJunction="4way_21" toJunction="3way_92"/>
<trip id="220" depart="36.652" fromJunction="4way_78" toJunction="4way_76"/>
<trip id="221" depart="36.818599999999996" fromJunction="4way_77" toJunction="4way_68"/>
<trip id="222" depart="36.9852" fromJunction="4way_88" toJunction="3way_40"/>
<trip id="223" depart="37.1518" fromJunction="3way_39" toJunction="3way_91"/>
<trip id="224" depart="37.3184" fromJunction="3way_92" toJunction="4way_48"/>
<trip id="225" depart="37.485" fromJunction="3way_6" toJunction="4way_35"/>
<trip id="226" depart="37.6516" fromJunction="4way_57" toJunction="4way_75"/>
<trip id="227" depart="37.8182" fromJunction="4way_51" toJunction="3way_60"/>
<trip id="228" depart="37.9848" fromJunction="4way_85" toJunction="4way_41"/>
<trip id="229" depart="38.1514" fromJunction="3way_98" toJunction="3way_92"/>
<trip id="230" depart="38.318" fromJunction="3way_30" toJunction="4way_42"/>
<trip id="231" depart="38.4846" fromJunction="3way_92" toJunction="4way_17"/>
<trip id="232" depart="38.6512" fromJunction="4way_38" toJunction="4way_13"/>
<trip id="233" depart="38.8178" fromJunction="4way_47" toJunction="4way_54"/>
<trip id="234" depart="38.9844" fromJunction="4way_16" toJunction="4way_38"/>
<trip id="235" depart="39.150999999999996" fromJunction="4way_58" toJunction="4way_45"/>
<trip id="236" depart="39.3176" fromJunction="4way_42" toJunction="4way_88"/>
<trip id="237" depart="39.4842" fromJunction="3way_40" toJunction="3way_7"/>
<trip id="238" depart="39.6508" fromJunction="4way_12" toJunction="3way_79"/>
<trip id="239" depart="39.8174" fromJunction="4way_24" toJunction="3way_59"/>
<trip id="240" depart="39.984" fromJunction="4way_67" toJunction="4way_51"/>
<trip id="241" depart="40.1506" fromJunction="4way_53" toJunction="4way_58"/>
<trip id="242" depart="40.3172" fromJunction="4way_14" toJunction="3way_60"/>
<trip id="243" depart="40.4838" fromJunction="4way_81" toJunction="4way_77"/>
<trip id="244" depart="40.6504" fromJunction="3way_60" toJunction="4way_53"/>
<trip id="245" depart="40.817" fromJunction="4way_71" toJunction="4way_42"/>
<trip id="246" depart="40.9836" fromJunction="4way_13" toJunction="3way_91"/>
<trip id="247" depart="41.1502" fromJunction="4way_41" toJunction="3way_30"/>
<trip id="248" depart="41.3168" fromJunction="4way_16" toJunction="4way_33"/>
<trip id="249" depart="41.483399999999996" fromJunction="4way_18" toJunction="4way_11"/>
<trip id="250" depart="41.65" fromJunction="3way_5" toJunction="4way_37"/>
<trip id="251" depart="41.8166" fromJunction="4way_32" toJunction="3way_80"/>
<trip id="252" depart="41.9832" fromJunction="4way_21" toJunction="3way_39"/>
<trip id="253" depart="42.1498" fromJunction="4way_25" toJunction="4way_85"/>
<trip id="254" depart="42.3164" fromJunction="4way_55" toJunction="4way_44"/>
<trip id="255" depart="42.483" fromJunction="4way_11" toJunction="3way_95"/>
<trip id="256" depart="42.6496" fromJunction="4way_57" toJunction="4way_15"/>
<trip id="257" depart="42.8162" fromJunction="3way_50" toJunction="4way_53"/>
<trip id="258" depart="42.9828" fromJunction="4way_55" toJunction="3way_3"/>
<trip id="259" depart="43.1494" fromJunction="4way_41" toJunction="3way_1"/>
<trip id="260" depart="43.316" fromJunction="4way_18" toJunction="4way_33"/>
<trip id="261" depart="43.4826" fromJunction="4way_71" toJunction="3way_19"/>
<trip id="262" depart="43.6492" fromJunction="4way_11" toJunction="3way_3"/>
<trip id="263" depart="43.8158" fromJunction="3way_60" toJunction="4way_44"/>
<trip id="264" depart="43.9824" fromJunction="3way_49" toJunction="3way_94"/>
<trip id="265" depart="44.149" fromJunction="4way_35" toJunction="4way_83"/>
<trip id="266" depart="44.315599999999996" fromJunction="4way_48" toJunction="4way_15"/>
<trip id="267" depart="44.4822" fromJunction="4way_74" toJunction="3way_1"/>
<trip id="268" depart="44.6488" fromJunction="4way_14" toJunction="4way_24"/>
<trip id="269" depart="44.8154" fromJunction="3way_2" toJunction="4way_58"/>
<trip id="270" depart="44.982" fromJunction="4way_76" toJunction="4way_35"/>
<trip id="271" depart="45.1486" fromJunction="4way_11" toJunction="4way_13"/>
<trip id="272" depart="45.3152" fromJunction="3way_29" toJunction="4way_46"/>
<trip id="273" depart="45.4818" fromJunction="4way_23" toJunction="4way_32"/>
<trip id="274" depart="45.6484" fromJunction="3way_19" toJunction="4way_35"/>
<trip id="275" depart="45.815" fromJunction="4way_81" toJunction="3way_93"/>
<trip id="276" depart="45.9816" fromJunction="4way_67" toJunction="4way_44"/>
<trip id="277" depart="46.1482" fromJunction="3way_59" toJunction="4way_44"/>
<trip id="278" depart="46.3148" fromJunction="4way_47" toJunction="4way_78"/>
<trip id="279" depart="46.4814" fromJunction="4way_18" toJunction="4way_13"/>
<trip id="280" depart="46.647999999999996" fromJunction="4way_18" toJunction="4way_43"/>
<trip id="281" depart="46.8146" fromJunction="4way_58" toJunction="4way_86"/>
<trip id="282" depart="46.9812" fromJunction="3way_4" toJunction="4way_18"/>
<trip id="283" depart="47.1478" fromJunction="4way_61" toJunction="3way_98"/>
<trip id="284" depart="47.3144" fromJunction="3way_40" toJunction="4way_48"/>
<trip id="285" depart="47.481" fromJunction="4way_67" toJunction="3way_89"/>
<trip id="286" depart="47.6476" fromJunction="4way_87" toJunction="4way_32"/>
<trip id="287" depart="47.8142" fromJunction="4way_84" toJunction="3way_89"/>
<trip id="288" depart="47.9808" fromJunction="3way_8" toJunction="4way_32"/>
<trip id="289" depart="48.1474" fromJunction="3way_91" toJunction="4way_35"/>
<trip id="290" depart="48.314" fromJunction="3way_6" toJunction="3way_4"/>
<trip id="291" depart="48.4806" fromJunction="4way_87" toJunction="3way_6"/>
<trip id="292" depart="48.6472" fromJunction="4way_77" toJunction="4way_85"/>
<trip id="293" depart="48.8138" fromJunction="4way_33" toJunction="4way_15"/>
<trip id="294" depart="48.980399999999996" fromJunction="4way_88" toJunction="3way_30"/>
<trip id="295" depart="49.147" fromJunction="4way_62" toJunction="4way_31"/>
<trip id="296" depart="49.3136" fromJunction="4way_78" toJunction="4way_51"/>
<trip id="297" depart="49.480199999999996" fromJunction="3way_10" toJunction="3way_98"/>
<trip id="298" depart="49.6468" fromJunction="3way_7" toJunction="4way_25"/>
<trip id="299" depart="49.8134" fromJunction="4way_62" toJunction="4way_34"/>
<trip id="300" depart="49.98" fromJunction="3way_92" toJunction="3way_50"/>
<trip id="301" depart="50.1466" fromJunction="4way_41" toJunction="4way_23"/>
<trip id="302" depart="50.3132" fromJunction="4way_11" toJunction="4way_42"/>
<trip id="303" depart="50.4798" fromJunction="3way_59" toJunction="4way_68"/>
<trip id="304" depart="50.6464" fromJunction="4way_11" toJunction="3way_29"/>
<trip id="305" depart="50.813" fromJunction="4way_84" toJunction="4way_14"/>
<trip id="306" depart="50.9796" fromJunction="4way_88" toJunction="4way_71"/>
<trip id="307" depart="51.1462" fromJunction="4way_65" toJunction="4way_21"/>
<trip id="308" depart="51.3128" fromJunction="4way_76" toJunction="4way_64"/>
<trip id="309" depart="51.4794" fromJunction="4way_67" toJunction="4way_68"/>
<trip id="310" depart="51.646" fromJunction="4way_45" toJunction="4way_26"/>
<trip id="311" depart="51.812599999999996" fromJunction="3way_79" toJunction="4way_11"/>
<trip id="312" depart="51.9792" fromJunction="3way_91" toJunction="3way_7"/>
<trip id="313" depart="52.1458" fromJunction="4way_33" toJunction="4way_22"/>
<trip id="314" depart="52.3124" fromJunction="4way_58" toJunction="4way_36"/>
<trip id="315" depart="52.479" fromJunction="3way_39" toJunction="3way_49"/>
<trip id="316" depart="52.6456" fromJunction="4way_85" toJunction="4way_14"/>
<trip id="317" depart="52.8122" fromJunction="4way_28" toJunction="4way_27"/>
<trip id="318" depart="52.9788" fromJunction="4way_71" toJunction="4way_78"/>
<trip id="319" depart="53.1454" fromJunction="3way_79" toJunction="4way_51"/>
<trip id="320" depart="53.312" fromJunction="4way_84" toJunction="4way_25"/>
<trip id="321" depart="53.4786" fromJunction="3way_29" toJunction="4way_37"/>
<trip id="322" depart="53.6452" fromJunction="4way_83" toJunction="4way_82"/>
<trip id="323" depart="53.8118" fromJunction="3way_98" toJunction="3way_91"/>
<trip id="324" depart="53.9784" fromJunction="3way_6" toJunction="4way_37"/>
<trip id="325" depart="54.144999999999996" fromJunction="3way_49" toJunction="4way_62"/>
<trip id="326" depart="54.3116" fromJunction="4way_78" toJunction="4way_42"/>
<trip id="327" depart="54.4782" fromJunction="4way_37" toJunction="4way_12"/>
<trip id="328" depart="54.6448" fromJunction="3way_60" toJunction="3way_49"/>
<trip id="329" depart="54.8114" fromJunction="4way_21" toJunction="4way_15"/>
<trip id="330" depart="54.978" fromJunction="4way_64" toJunction="4way_55"/>
<trip id="331" depart="55.1446" fromJunction="4way_22" toJunction="4way_71"/>
<trip id="332" depart="55.3112" fromJunction="3way_7" toJunction="4way_34"/>
<trip id="333" depart="55.4778" fromJunction="4way_74" toJunction="4way_76"/>
<trip id="334" depart="55.6444" fromJunction="4way_43" toJunction="4way_65"/>
<trip id="335" depart="55.811" fromJunction="4way_71" toJunction="3way_39"/>
<trip id="336" depart="55.9776" fromJunction="3way_20" toJunction="4way_71"/>
<trip id="337" depart="56.1442" fromJunction="4way_75" toJunction="3way_3"/>
<trip id="338" depart="56.3108" fromJunction="4way_34" toJunction="3way_39"/>
<trip id="339" depart="56.477399999999996" fromJunction="4way_54" toJunction="4way_45"/>
<trip id="340" depart="56.644" fromJunction="3way_29" toJunction="4way_58"/>
<trip id="341" depart="56.8106" fromJunction="3way_3" toJunction="4way_47"/>
<trip id="342" depart="56.977199999999996" fromJunction="4way_71" toJunction="4way_43"/>
<trip id="343" depart="57.1438" fromJunction="4way_41" toJunction="4way_33"/>
<trip id="344" depart="57.3104" fromJunction="3way_2" toJunction="3way_96"/>
<trip id="345" depart="57.477" fromJunction="4way_17" toJunction="4way_23"/>
<trip id="346" depart="57.6436" fromJunction="3way_93" toJunction="4way_41"/>
<trip id="347" depart="57.8102" fromJunction="3way_19" toJunction="3way_8"/>
<trip id="348" depart="57.9768" fromJunction="3way_29" toJunction="3way_93"/>
<trip id="349" depart="58.1434" fromJunction="3way_7" toJunction="3way_70"/>
<trip id="350" depart="58.31" fromJunction="4way_37" toJunction="3way_7"/>
<trip id="351" depart="58.4766" fromJunction="4way_63" toJunction="3way_89"/>
<trip id="352" depart="58.6432" fromJunction="4way_42" toJunction="4way_36"/>
<trip id="353" depart="58.8098" fromJunction="3way_95" toJunction="3way_79"/>
<trip id="354" depart="58.9764" fromJunction="4way_33" toJunction="4way_22"/>
<trip id="355" depart="59.143" fromJunction="4way_46" toJunction="4way_21"/>
<trip id="356" depart="59.309599999999996" fromJunction="4way_28" toJunction="4way_16"/>
<trip id="357" depart="59.4762" fromJunction="4way_67" toJunction="3way_3"/>
<trip id="358" depart="59.6428" fromJunction="4way_57" toJunction="4way_61"/>
<trip id="359" depart="59.8094" fromJunction="4way_78" toJunction="4way_35"/>
<trip id="360" depart="59.976" fromJunction="4way_31" toJunction="4way_16"/>
<trip id="361" depart="60.1426" fromJunction="4way_51" toJunction="4way_13"/>
<trip id="362" depart="60.3092" fromJunction="3way_70" toJunction="4way_41"/>
<trip id="363" depart="60.4758" fromJunction="4way_25" toJunction="4way_82"/>
<trip id="364" depart="60.6424" fromJunction="4way_33" toJunction="3way_60"/>
<trip id="365" depart="60.809" fromJunction="3way_89" toJunction="3way_49"/>
<trip id="366" depart="60.9756" fromJunction="4way_68" toJunction="3way_5"/>
<trip id="367" depart="61.1422" fromJunction="3way_97" toJunction="3way_1"/>
<trip id="368" depart="61.3088" fromJunction="3way_8" toJunction="4way_34"/>
<trip id="369" depart="61.4754" fromJunction="4way_65" toJunction="4way_57"/>
<trip id="370" depart="61.641999999999996" fromJunction="4way_13" toJunction="4way_58"/>
<trip id="371" depart="61.8086" fromJunction="4way_53" toJunction="3way_40"/>
<trip id="372" depart="61.9752" fromJunction="4way_23" toJunction="4way_28"/>
<trip id="373" depart="62.141799999999996" fromJunction="4way_57" toJunction="3way_70"/>
<trip id="374" depart="62.3084" fromJunction="3way_1" toJunction="4way_41"/>
<trip id="375" depart="62.475" fromJunction="3way_20" toJunction="3way_91"/>
<trip id="376" depart="62.6416" fromJunction="4way_52" toJunction="4way_37"/>
<trip id="377" depart="62.8082" fromJunction="4way_11" toJunction="4way_32"/>
<trip id="378" depart="62.9748" fromJunction="4way_38" toJunction="4way_57"/>
<trip id="379" depart="63.1414" fromJunction="4way_51" toJunction="4way_88"/>
<trip id="380" depart="63.308" fromJunction="4way_56" toJunction="4way_58"/>
<trip id="381" depart="63.4746" fromJunction="3way_91" toJunction="4way_15"/>
<trip id="382" depart="63.6412" fromJunction="3way_89" toJunction="3way_94"/>