<?xml version="1.0" encoding="UTF-8"?>
<edges xmlns:xsi="http://www.w3.org/2001/XMLSchema-instance" xsi:noNamespaceSchemaLocation="http://sumo.dlr.de/xsd/edges_file.xsd">
    <edge from="3way_1" id="1_3way_1to3way_2" to="3way_2" spreadType="roadCenter" numLanes="1" priority="1"/>
    <edge from="3way_2" id="1_3way_2to3way_1" to="3way_1" spreadType="roadCenter" numLanes="1" priority="1"/>
    <edge from="3way_1" id="2_3way_1to3way_7" to="3way_7" spreadType="roadCenter" numLanes="1" priority="1" shape="100.00,0.00 0.00,0.00 0.00,-100.00"/>
    <edge from="3way_7" id="2_3way_7to3way_1" to="3way_1" spreadType="roadCenter" numLanes="1" priority="1" shape="0.00,-100.00 0.00,0.00 100.00,0.00"/>
    <edge from="3way_1" id="3_3way_1to4way_8" to="4way_8" spreadType="roadCenter" numLanes="1" priority="0"/>
    <edge from="4way_8" id="3_4way_8to3way_1" to="3way_1" spreadType="roadCenter" numLanes="1" priority="0"/>
    <edge from="3way_13" id="4_3way_13to3way_20" to="3way_20" spreadType="roadCenter" numLanes="1" priority="1"/>
    <edge from="3way_20" id="4_3way_20to3way_13" to="3way_13" spreadType="roadCenter" numLanes="1" priority="1"/>
    <edge from="3way_5" id="5_3way_5to3way_13" to="3way_13" spreadType="roadCenter" numLanes="1" priority="1" shape="500.00,0.00 600.00,0.00 600.00,-100.00"/>
    <edge from="3way_13" id="5_3way_13to3way_5" to="3way_5" spreadType="roadCenter" numLanes="1" priority="1" shape="600.00,-100.00 600.00,0.00 500.00,0.00"/>
    <edge from="3way_13" id="6_3way_13to4way_12" to="4way_12" spreadType="roadCenter" numLanes="1" priority="0"/>
    <edge from="4way_12" id="6_4way_12to3way_13" to="3way_13" spreadType="roadCenter" numLanes="1" priority="0"/>
    <edge from="3way_14" id="7_3way_14to3way_21" to="3way_21" spreadType="roadCenter" numLanes="1" priority="1"/>
    <edge from="3way_21" id="7_3way_21to3way_14" to="3way_14" spreadType="roadCenter" numLanes="1" priority="1"/>
    <edge from="3way_14" id="8_3way_14to3way_7" to="3way_7" spreadType="roadCenter" numLanes="1" priority="1"/>
    <edge from="3way_7" id="8_3way_7to3way_14" to="3way_14" spreadType="roadCenter" numLanes="1" priority="1"/>
    <edge from="3way_14" id="9_3way_14to4way_15" to="4way_15" spreadType="roadCenter" numLanes="1" priority="0"/>
    <edge from="4way_15" id="9_4way_15to3way_14" to="3way_14" spreadType="roadCenter" numLanes="1" priority="0"/>
    <edge from="3way_2" id="10_3way_2to3way_3" to="3way_3" spreadType="roadCenter" numLanes="1" priority="1"/>
    <edge from="3way_3" id="10_3way_3to3way_2" to="3way_2" spreadType="roadCenter" numLanes="1" priority="1"/>
    <edge from="3way_2" id="11_3way_2to4way_9" to="4way_9" spreadType="roadCenter" numLanes="1" priority="0"/>
    <edge from="4way_9" id="11_4way_9to3way_2" to="3way_2" spreadType="roadCenter" numLanes="1" priority="0"/>
    <edge from="3way_20" id="12_3way_20to3way_27" to="3way_27" spreadType="roadCenter" numLanes="1" priority="1"/>
    <edge from="3way_27" id="12_3way_27to3way_20" to="3way_20" spreadType="roadCenter" numLanes="1" priority="1"/>
    <edge from="3way_20" id="13_3way_20to4way_19" to="4way_19" spreadType="roadCenter" numLanes="1" priority="0"/>
    <edge from="4way_19" id="13_4way_19to3way_20" to="3way_20" spreadType="roadCenter" numLanes="1" priority="0"/>
    <edge from="3way_21" id="14_3way_21to3way_28" to="3way_28" spreadType="roadCenter" numLanes="1" priority="1"/>
    <edge from="3way_28" id="14_3way_28to3way_21" to="3way_21" spreadType="roadCenter" numLanes="1" priority="1"/>
    <edge from="3way_21" id="15_3way_21to4way_22" to="4way_22" spreadType="roadCenter" numLanes="1" priority="0"/>
    <edge from="4way_22" id="15_4way_22to3way_21" to="3way_21" spreadType="roadCenter" numLanes="1" priority="0"/>
    <edge from="3way_27" id="16_3way_27to3way_34" to="3way_34" spreadType="roadCenter" numLanes="1" priority="1"/>
    <edge from="3way_34" id="16_3way_34to3way_27" to="3way_27" spreadType="roadCenter" numLanes="1" priority="1"/>
    <edge from="3way_27" id="17_3way_27to4way_26" to="4way_26" spreadType="roadCenter" numLanes="1" priority="0"/>
    <edge from="4way_26" id="17_4way_26to3way_27" to="3way_27" spreadType="roadCenter" numLanes="1" priority="0"/>
    <edge from="3way_28" id="18_3way_28to3way_35" to="3way_35" spreadType="roadCenter" numLanes="1" priority="1"/>
    <edge from="3way_35" id="18_3way_35to3way_28" to="3way_28" spreadType="roadCenter" numLanes="1" priority="1"/>
    <edge from="3way_28" id="19_3way_28to4way_29" to="4way_29" spreadType="roadCenter" numLanes="1" priority="0"/>
    <edge from="4way_29" id="19_4way_29to3way_28" to="3way_28" spreadType="roadCenter" numLanes="1" priority="0"/>
    <edge from="3way_3" id="20_3way_3to3way_4" to="3way_4" spreadType="roadCenter" numLanes="1" priority="1"/>
    <edge from="3way_4" id="20_3way_4to3way_3" to="3way_3" spreadType="roadCenter" numLanes="1" priority="1"/>
    <edge from="3way_3" id="21_3way_3to4way_10" to="4way_10" spreadType="roadCenter" numLanes="1" priority="0"/>
    <edge from="4way_10" id="21_4way_10to3way_3" to="3way_3" spreadType="roadCenter" numLanes="1" priority="0"/>
    <edge from="3way_34" id="22_3way_34to3way_41" to="3way_41" spreadType="roadCenter" numLanes="1" priority="1"/>
    <edge from="3way_41" id="22_3way_41to3way_34" to="3way_34" spreadType="roadCenter" numLanes="1" priority="1"/>
    <edge from="3way_34" id="23_3way_34to4way_33" to="4way_33" spreadType="roadCenter" numLanes="1" priority="0"/>
    <edge from="4way_33" id="23_4way_33to3way_34" to="3way_34" spreadType="roadCenter" numLanes="1" priority="0"/>
    <edge from="3way_43" id="24_3way_43to3way_35" to="3way_35" spreadType="roadCenter" numLanes="1" priority="1" shape="100.00,-600.00 0.00,-600.00 0.00,-500.00"/>
    <edge from="3way_35" id="24_3way_35to3way_43" to="3way_43" spreadType="roadCenter" numLanes="1" priority="1" shape="0.00,-500.00 0.00,-600.00 100.00,-600.00"/>
    <edge from="3way_35" id="25_3way_35to4way_36" to="4way_36" spreadType="roadCenter" numLanes="1" priority="0"/>
    <edge from="4way_36" id="25_4way_36to3way_35" to="3way_35" spreadType="roadCenter" numLanes="1" priority="0"/>
    <edge from="3way_4" id="26_3way_4to3way_5" to="3way_5" spreadType="roadCenter" numLanes="1" priority="1"/>
    <edge from="3way_5" id="26_3way_5to3way_4" to="3way_4" spreadType="roadCenter" numLanes="1" priority="1"/>
    <edge from="3way_4" id="27_3way_4to4way_11" to="4way_11" spreadType="roadCenter" numLanes="1" priority="0"/>
    <edge from="4way_11" id="27_4way_11to3way_4" to="3way_4" spreadType="roadCenter" numLanes="1" priority="0"/>
    <edge from="3way_41" id="28_3way_41to3way_47" to="3way_47" spreadType="roadCenter" numLanes="1" priority="1" shape="600.00,-500.00 600.00,-600.00 500.00,-600.00"/>
    <edge from="3way_47" id="28_3way_47to3way_41" to="3way_41" spreadType="roadCenter" numLanes="1" priority="1" shape="500.00,-600.00 600.00,-600.00 600.00,-500.00"/>
    <edge from="3way_41" id="29_3way_41to4way_40" to="4way_40" spreadType="roadCenter" numLanes="1" priority="0"/>
    <edge from="4way_40" id="29_4way_40to3way_41" to="3way_41" spreadType="roadCenter" numLanes="1" priority="0"/>
    <edge from="3way_43" id="30_3way_43to3way_44" to="3way_44" spreadType="roadCenter" numLanes="1" priority="1"/>
    <edge from="3way_44" id="30_3way_44to3way_43" to="3way_43" spreadType="roadCenter" numLanes="1" priority="1"/>
    <edge from="3way_43" id="31_3way_43to4way_36" to="4way_36" spreadType="roadCenter" numLanes="1" priority="0"/>
    <edge from="4way_36" id="31_4way_36to3way_43" to="3way_43" spreadType="roadCenter" numLanes="1" priority="0"/>
    <edge from="3way_44" id="32_3way_44to3way_45" to="3way_45" spreadType="roadCenter" numLanes="1" priority="1"/>
    <edge from="3way_45" id="32_3way_45to3way_44" to="3way_44" spreadType="roadCenter" numLanes="1" priority="1"/>
    <edge from="3way_44" id="33_3way_44to4way_37" to="4way_37" spreadType="roadCenter" numLanes="1" priority="0"/>
    <edge from="4way_37" id="33_4way_37to3way_44" to="3way_44" spreadType="roadCenter" numLanes="1" priority="0"/>
    <edge from="3way_45" id="34_3way_45to3way_46" to="3way_46" spreadType="roadCenter" numLanes="1" priority="1"/>
    <edge from="3way_46" id="34_3way_46to3way_45" to="3way_45" spreadType="roadCenter" numLanes="1" priority="1"/>
    <edge from="3way_45" id="35_3way_45to4way_38" to="4way_38" spreadType="roadCenter" numLanes="1" priority="0"/>
    <edge from="4way_38" id="35_4way_38to3way_45" to="3way_45" spreadType="roadCenter" numLanes="1" priority="0"/>
    <edge from="3way_46" id="36_3way_46to3way_47" to="3way_47" spreadType="roadCenter" numLanes="1" priority="1"/>
    <edge from="3way_47" id="36_3way_47to3way_46" to="3way_46" spreadType="roadCenter" numLanes="1" priority="1"/>
    <edge from="3way_46" id="37_3way_46to4way_39" to="4way_39" spreadType="roadCenter" numLanes="1" priority="0"/>
    <edge from="4way_39" id="37_4way_39to3way_46" to="3way_46" spreadType="roadCenter" numLanes="1" priority="0"/>
    <edge from="3way_47" id="38_3way_47to4way_40" to="4way_40" spreadType="roadCenter" numLanes="1" priority="0"/>
    <edge from="4way_40" id="38_4way_40to3way_47" to="3way_47" spreadType="roadCenter" numLanes="1" priority="0"/>
    <edge from="3way_5" id="39_3way_5to4way_12" to="4way_12" spreadType="roadCenter" numLanes="1" priority="0"/>
    <edge from="4way_12" id="39_4way_12to3way_5" to="3way_5" spreadType="roadCenter" numLanes="1" priority="0"/>
    <edge from="3way_7" id="40_3way_7to4way_8" to="4way_8" spreadType="roadCenter" numLanes="1" priority="0"/>
    <edge from="4way_8" id="40_4way_8to3way_7" to="3way_7" spreadType="roadCenter" numLanes="1" priority="0"/>
    <edge from="4way_10" id="41_4way_10to4way_11" to="4way_11" spreadType="roadCenter" numLanes="1" priority="1"/>
    <edge from="4way_11" id="41_4way_11to4way_10" to="4way_10" spreadType="roadCenter" numLanes="1" priority="1"/>
    <edge from="4way_10" id="42_4way_10to4way_17" to="4way_17" spreadType="roadCenter" numLanes="1" priority="1"/>
    <edge from="4way_17" id="42_4way_17to4way_10" to="4way_10" spreadType="roadCenter" numLanes="1" priority="1"/>
    <edge from="4way_10" id="43_4way_10to4way_9" to="4way_9" spreadType="roadCenter" numLanes="1" priority="1"/>
    <edge from="4way_9" id="43_4way_9to4way_10" to="4way_10" spreadType="roadCenter" numLanes="1" priority="1"/>
    <edge from="4way_11" id="44_4way_11to4way_12" to="4way_12" spreadType="roadCenter" numLanes="1" priority="1"/>
    <edge from="4way_12" id="44_4way_12to4way_11" to="4way_11" spreadType="roadCenter" numLanes="1" priority="1"/>
    <edge from="4way_11" id="45_4way_11to4way_18" to="4way_18" spreadType="roadCenter" numLanes="1" priority="1"/>
    <edge from="4way_18" id="45_4way_18to4way_11" to="4way_11" spreadType="roadCenter" numLanes="1" priority="1"/>
    <edge from="4way_12" id="46_4way_12to4way_19" to="4way_19" spreadType="roadCenter" numLanes="1" priority="1"/>
    <edge from="4way_19" id="46_4way_19to4way_12" to="4way_12" spreadType="roadCenter" numLanes="1" priority="1"/>
    <edge from="4way_15" id="47_4way_15to4way_16" to="4way_16" spreadType="roadCenter" numLanes="1" priority="1"/>
    <edge from="4way_16" id="47_4way_16to4way_15" to="4way_15" spreadType="roadCenter" numLanes="1" priority="1"/>
    <edge from="4way_15" id="48_4way_15to4way_22" to="4way_22" spreadType="roadCenter" numLanes="1" priority="1"/>
    <edge from="4way_22" id="48_4way_22to4way_15" to="4way_15" spreadType="roadCenter" numLanes="1" priority="1"/>
    <edge from="4way_15" id="49_4way_15to4way_8" to="4way_8" spreadType="roadCenter" numLanes="1" priority="1"/>
    <edge from="4way_8" id="49_4way_8to4way_15" to="4way_15" spreadType="roadCenter" numLanes="1" priority="1"/>
    <edge from="4way_16" id="50_4way_16to4way_17" to="4way_17" spreadType="roadCenter" numLanes="1" priority="1"/>
    <edge from="4way_17" id="50_4way_17to4way_16" to="4way_16" spreadType="roadCenter" numLanes="1" priority="1"/>
    <edge from="4way_16" id="51_4way_16to4way_23" to="4way_23" spreadType="roadCenter" numLanes="1" priority="1"/>
    <edge from="4way_23" id="51_4way_23to4way_16" to="4way_16" spreadType="roadCenter" numLanes="1" priority="1"/>
    <edge from="4way_16" id="52_4way_16to4way_9" to="4way_9" spreadType="roadCenter" numLanes="1" priority="1"/>
    <edge from="4way_9" id="52_4way_9to4way_16" to="4way_16" spreadType="roadCenter" numLanes="1" priority="1"/>
    <edge from="4way_17" id="53_4way_17to4way_18" to="4way_18" spreadType="roadCenter" numLanes="1" priority="1"/>
    <edge from="4way_18" id="53_4way_18to4way_17" to="4way_17" spreadType="roadCenter" numLanes="1" priority="1"/>
    <edge from="4way_17" id="54_4way_17to4way_24" to="4way_24" spreadType="roadCenter" numLanes="1" priority="1"/>
    <edge from="4way_24" id="54_4way_24to4way_17" to="4way_17" spreadType="roadCenter" numLanes="1" priority="1"/>
    <edge from="4way_18" id="55_4way_18to4way_19" to="4way_19" spreadType="roadCenter" numLanes="1" priority="1"/>
    <edge from="4way_19" id="55_4way_19to4way_18" to="4way_18" spreadType="roadCenter" numLanes="1" priority="1"/>
    <edge from="4way_18" id="56_4way_18to4way_25" to="4way_25" spreadType="roadCenter" numLanes="1" priority="1"/>
    <edge from="4way_25" id="56_4way_25to4way_18" to="4way_18" spreadType="roadCenter" numLanes="1" priority="1"/>
    <edge from="4way_19" id="57_4way_19to4way_26" to="4way_26" spreadType="roadCenter" numLanes="1" priority="1"/>
    <edge from="4way_26" id="57_4way_26to4way_19" to="4way_19" spreadType="roadCenter" numLanes="1" priority="1"/>
    <edge from="4way_22" id="58_4way_22to4way_23" to="4way_23" spreadType="roadCenter" numLanes="1" priority="1"/>
    <edge from="4way_23" id="58_4way_23to4way_22" to="4way_22" spreadType="roadCenter" numLanes="1" priority="1"/>
    <edge from="4way_22" id="59_4way_22to4way_29" to="4way_29" spreadType="roadCenter" numLanes="1" priority="1"/>
    <edge from="4way_29" id="59_4way_29to4way_22" to="4way_22" spreadType="roadCenter" numLanes="1" priority="1"/>
    <edge from="4way_23" id="60_4way_23to4way_24" to="4way_24" spreadType="roadCenter" numLanes="1" priority="1"/>
    <edge from="4way_24" id="60_4way_24to4way_23" to="4way_23" spreadType="roadCenter" numLanes="1" priority="1"/>
    <edge from="4way_23" id="61_4way_23to4way_30" to="4way_30" spreadType="roadCenter" numLanes="1" priority="1"/>
    <edge from="4way_30" id="61_4way_30to4way_23" to="4way_23" spreadType="roadCenter" numLanes="1" priority="1"/>
    <edge from="4way_24" id="62_4way_24to4way_25" to="4way_25" spreadType="roadCenter" numLanes="1" priority="1"/>
    <edge from="4way_25" id="62_4way_25to4way_24" to="4way_24" spreadType="roadCenter" numLanes="1" priority="1"/>
    <edge from="4way_24" id="63_4way_24to4way_31" to="4way_31" spreadType="roadCenter" numLanes="1" priority="1"/>
    <edge from="4way_31" id="63_4way_31to4way_24" to="4way_24" spreadType="roadCenter" numLanes="1" priority="1"/>
    <edge from="4way_25" id="64_4way_25to4way_26" to="4way_26" spreadType="roadCenter" numLanes="1" priority="1"/>
    <edge from="4way_26" id="64_4way_26to4way_25" to="4way_25" spreadType="roadCenter" numLanes="1" priority="1"/>
    <edge from="4way_25" id="65_4way_25to4way_32" to="4way_32" spreadType="roadCenter" numLanes="1" priority="1"/>
    <edge from="4way_32" id="65_4way_32to4way_25" to="4way_25" spreadType="roadCenter" numLanes="1" priority="1"/>
    <edge from="4way_26" id="66_4way_26to4way_33" to="4way_33" spreadType="roadCenter" numLanes="1" priority="1"/>
    <edge from="4way_33" id="66_4way_33to4way_26" to="4way_26" spreadType="roadCenter" numLanes="1" priority="1"/>
    <edge from="4way_29" id="67_4way_29to4way_30" to="4way_30" spreadType="roadCenter" numLanes="1" priority="1"/>
    <edge from="4way_30" id="67_4way_30to4way_29" to="4way_29" spreadType="roadCenter" numLanes="1" priority="1"/>
    <edge from="4way_29" id="68_4way_29to4way_36" to="4way_36" spreadType="roadCenter" numLanes="1" priority="1"/>
    <edge from="4way_36" id="68_4way_36to4way_29" to="4way_29" spreadType="roadCenter" numLanes="1" priority="1"/>
    <edge from="4way_30" id="69_4way_30to4way_31" to="4way_31" spreadType="roadCenter" numLanes="1" priority="1"/>
    <edge from="4way_31" id="69_4way_31to4way_30" to="4way_30" spreadType="roadCenter" numLanes="1" priority="1"/>
    <edge from="4way_30" id="70_4way_30to4way_37" to="4way_37" spreadType="roadCenter" numLanes="1" priority="1"/>
    <edge from="4way_37" id="70_4way_37to4way_30" to="4way_30" spreadType="roadCenter" numLanes="1" priority="1"/>
    <edge from="4way_31" id="71_4way_31to4way_32" to="4way_32" spreadType="roadCenter" numLanes="1" priority="1"/>
    <edge from="4way_32" id="71_4way_32to4way_31" to="4way_31" spreadType="roadCenter" numLanes="1" priority="1"/>
    <edge from="4way_31" id="72_4way_31to4way_38" to="4way_38" spreadType="roadCenter" numLanes="1" priority="1"/>
    <edge from="4way_38" id="72_4way_38to4way_31" to="4way_31" spreadType="roadCenter" numLanes="1" priority="1"/>
    <edge from="4way_32" id="73_4way_32to4way_33" to="4way_33" spreadType="roadCenter" numLanes="1" priority="1"/>
    <edge from="4way_33" id="73_4way_33to4way_32" to="4way_32" spreadType="roadCenter" numLanes="1" priority="1"/>
    <edge from="4way_32" id="74_4way_32to4way_39" to="4way_39" spreadType="roadCenter" numLanes="1" priority="1"/>
    <edge from="4way_39" id="74_4way_39to4way_32" to="4way_32" spreadType="roadCenter" numLanes="1" priority="1"/>
    <edge from="4way_33" id="75_4way_33to4way_40" to="4way_40" spreadType="roadCenter" numLanes="1" priority="1"/>
    <edge from="4way_40" id="75_4way_40to4way_33" to="4way_33" spreadType="roadCenter" numLanes="1" priority="1"/>
    <edge from="4way_36" id="76_4way_36to4way_37" to="4way_37" spreadType="roadCenter" numLanes="1" priority="1"/>
    <edge from="4way_37" id="76_4way_37to4way_36" to="4way_36" spreadType="roadCenter" numLanes="1" priority="1"/>
    <edge from="4way_37" id="77_4way_37to4way_38" to="4way_38" spreadType="roadCenter" numLanes="1" priority="1"/>
    <edge from="4way_38" id="77_4way_38to4way_37" to="4way_37" spreadType="roadCenter" numLanes="1" priority="1"/>
    <edge from="4way_38" id="78_4way_38to4way_39" to="4way_39" spreadType="roadCenter" numLanes="1" priority="1"/>
    <edge from="4way_39" id="78_4way_39to4way_38" to="4way_38" spreadType="roadCenter" numLanes="1" priority="1"/>
    <edge from="4way_39" id="79_4way_39to4way_40" to="4way_40" spreadType="roadCenter" numLanes="1" priority="1"/>
    <edge from="4way_40" id="79_4way_40to4way_39" to="4way_39" spreadType="roadCenter" numLanes="1" priority="1"/>
    <edge from="4way_8" id="80_4way_8to4way_9" to="4way_9" spreadType="roadCenter" numLanes="1" priority="1"/>
    <edge from="4way_9" id="80_4way_9to4way_8" to="4way_8" spreadType="roadCenter" numLanes="1" priority="1"/>
</edges>
