<routes xmlns:xsi="http://www.w3.org/2001/XMLSchema-instance" xsi:noNamespaceSchemaLocation="http://sumo.dlr.de/xsd/routes_file.xsd">
<trip id="0" depart="0.0" fromJunction="4way_67" toJunction="4way_12"/>
<trip id="1" depart="0.3174" fromJunction="4way_65" toJunction="4way_48"/>
<trip id="2" depart="0.6348" fromJunction="4way_13" toJunction="4way_46"/>
<trip id="3" depart="0.9522" fromJunction="4way_60" toJunction="4way_55"/>
<trip id="4" depart="1.2696" fromJunction="4way_19" toJunction="4way_52"/>
<trip id="5" depart="1.5870000000000002" fromJunction="4way_56" toJunction="4way_50"/>
<trip id="6" depart="1.9044" fromJunction="4way_25" toJunction="4way_21"/>
<trip id="7" depart="2.2218" fromJunction="3way_7" toJunction="3way_6"/>
<trip id="8" depart="2.5392" fromJunction="4way_24" toJunction="3way_2"/>
<trip id="9" depart="2.8566000000000003" fromJunction="4way_42" toJunction="4way_41"/>
<trip id="10" depart="3.1740000000000004" fromJunction="4way_59" toJunction="4way_61"/>
<trip id="11" depart="3.4914" fromJunction="4way_50" toJunction="4way_11"/>
<trip id="12" depart="3.8088" fromJunction="4way_13" toJunction="3way_35"/>
<trip id="13" depart="4.1262" fromJunction="4way_34" toJunction="3way_53"/>
<trip id="14" depart="4.4436" fromJunction="4way_37" toJunction="4way_56"/>
<trip id="15" depart="4.761" fromJunction="4way_41" toJunction="3way_73"/>
<trip id="16" depart="5.0784" fromJunction="4way_21" toJunction="4way_11"/>
<trip id="17" depart="5.3958" fromJunction="4way_57" toJunction="3way_2"/>
<trip id="18" depart="5.7132000000000005" fromJunction="4way_40" toJunction="4way_34"/>
<trip id="19" depart="6.030600000000001" fromJunction="4way_55" toJunction="3way_9"/>
<trip id="20" depart="6.348000000000001" fromJunction="3way_5" toJunction="4way_49"/>
<trip id="21" depart="6.6654" fromJunction="3way_35" toJunction="3way_77"/>
<trip id="22" depart="6.9828" fromJunction="4way_10" toJunction="3way_36"/>
<trip id="23" depart="7.3002" fromJunction="4way_55" toJunction="4way_21"/>
<trip id="24" depart="7.6176" fromJunction="3way_17" toJunction="4way_70"/>
<trip id="25" depart="7.9350000000000005" fromJunction="3way_62" toJunction="3way_77"/>
<trip id="26" depart="8.2524" fromJunction="3way_74" toJunction="4way_22"/>
<trip id="27" depart="8.5698" fromJunction="3way_75" toJunction="4way_11"/>
<trip id="28" depart="8.8872" fromJunction="3way_26" toJunction="3way_62"/>
<trip id="29" depart="9.204600000000001" fromJunction="3way_44" toJunction="4way_22"/>
<trip id="30" depart="9.522" fromJunction="4way_10" toJunction="3way_78"/>
<trip id="31" depart="9.839400000000001" fromJunction="3way_17" toJunction="4way_15"/>
<trip id="32" depart="10.1568" fromJunction="3way_17" toJunction="4way_24"/>
<trip id="33" depart="10.4742" fromJunction="4way_20" toJunction="4way_61"/>
<trip id="34" depart="10.7916" fromJunction="4way_48" toJunction="4way_61"/>
<trip id="35" depart="11.109" fromJunction="3way_4" toJunction="4way_14"/>
<trip id="36" depart="11.426400000000001" fromJunction="3way_35" toJunction="3way_63"/>
<trip id="37" depart="11.7438" fromJunction="3way_35" toJunction="3way_54"/>
<trip id="38" depart="12.061200000000001" fromJunction="4way_37" toJunction="3way_36"/>
<trip id="39" depart="12.3786" fromJunction="4way_49" toJunction="3way_5"/>
<trip id="40" depart="12.696000000000002" fromJunction="3way_73" toJunction="4way_21"/>
<trip id="41" depart="13.0134" fromJunction="3way_17" toJunction="4way_56"/>
<trip id="42" depart="13.3308" fromJunction="4way_25" toJunction="4way_30"/>
<trip id="43" depart="13.648200000000001" fromJunction="4way_31" toJunction="3way_36"/>
<trip id="44" depart="13.9656" fromJunction="4way_67" toJunction="3way_44"/>
<trip id="45" depart="14.283000000000001" fromJunction="3way_79" toJunction="3way_54"/>
<trip id="46" depart="14.6004" fromJunction="3way_2" toJunction="4way_39"/>
<trip id="47" depart="14.917800000000002" fromJunction="3way_1" toJunction="4way_15"/>
<trip id="48" depart="15.2352" fromJunction="3way_73" toJunction="4way_40"/>
<trip id="49" depart="15.5526" fromJunction="4way_52" toJunction="4way_14"/>
<trip id="50" depart="15.870000000000001" fromJunction="4way_30" toJunction="3way_74"/>
<trip id="51" depart="16.1874" fromJunction="4way_30" toJunction="4way_39"/>
<trip id="52" depart="16.5048" fromJunction="4way_43" toJunction="3way_76"/>
<trip id="53" depart="16.822200000000002" fromJunction="4way_33" toJunction="4way_64"/>
<trip id="54" depart="17.1396" fromJunction="3way_54" toJunction="4way_49"/>
<trip id="55" depart="17.457" fromJunction="4way_28" toJunction="4way_68"/>
<trip id="56" depart="17.7744" fromJunction="4way_30" toJunction="4way_51"/>
<trip id="57" depart="18.0918" fromJunction="4way_49" toJunction="4way_51"/>
<trip id="58" depart="18.409200000000002" fromJunction="4way_38" toJunction="4way_67"/>
<trip id="59" depart="18.7266" fromJunction="4way_13" toJunction="4way_43"/>
<trip id="60" depart="19.044" fromJunction="4way_48" toJunction="4way_46"/>
<trip id="61" depart="19.3614" fromJunction="3way_45" toJunction="3way_2"/>
<trip id="62" depart="19.678800000000003" fromJunction="3way_54" toJunction="4way_22"/>
<trip id="63" depart="19.9962" fromJunction="4way_55" toJunction="4way_57"/>
<trip id="64" depart="20.3136" fromJunction="3way_54" toJunction="3way_44"/>
<trip id="65" depart="20.631" fromJunction="4way_39" toJunction="4way_21"/>
<trip id="66" depart="20.9484" fromJunction="4way_22" toJunction="4way_30"/>
<trip id="67" depart="21.265800000000002" fromJunction="4way_55" toJunction="4way_22"/>
<trip id="68" depart="21.5832" fromJunction="4way_10" toJunction="4way_69"/>
<trip id="69" depart="21.9006" fromJunction="4way_60" toJunction="4way_55"/>
<trip id="70" depart="22.218" fromJunction="4way_58" toJunction="4way_68"/>
<trip id="71" depart="22.535400000000003" fromJunction="4way_16" toJunction="3way_17"/>
<trip id="72" depart="22.852800000000002" fromJunction="4way_70" toJunction="4way_58"/>
<trip id="73" depart="23.1702" fromJunction="4way_42" toJunction="3way_53"/>
<trip id="74" depart="23.4876" fromJunction="4way_57" toJunction="3way_62"/>
<trip id="75" depart="23.805" fromJunction="4way_33" toJunction="3way_35"/>
<trip id="76" depart="24.122400000000003" fromJunction="4way_21" toJunction="4way_68"/>
<trip id="77" depart="24.4398" fromJunction="3way_6" toJunction="4way_37"/>
<trip id="78" depart="24.7572" fromJunction="4way_64" toJunction="4way_49"/>
<trip id="79" depart="25.0746" fromJunction="4way_42" toJunction="4way_67"/>
<trip id="80" depart="25.392000000000003" fromJunction="4way_33" toJunction="4way_61"/>
<trip id="81" depart="25.709400000000002" fromJunction="3way_9" toJunction="3way_1"/>
<trip id="82" depart="26.0268" fromJunction="3way_71" toJunction="4way_14"/>
<trip id="83" depart="26.3442" fromJunction="3way_5" toJunction="4way_56"/>
<trip id="84" depart="26.6616" fromJunction="3way_2" toJunction="3way_78"/>
<trip id="85" depart="26.979000000000003" fromJunction="3way_76" toJunction="4way_59"/>
<trip id="86" depart="27.296400000000002" fromJunction="4way_25" toJunction="3way_18"/>
<trip id="87" depart="27.6138" fromJunction="3way_3" toJunction="4way_58"/>
<trip id="88" depart="27.9312" fromJunction="4way_57" toJunction="3way_62"/>
<trip id="89" depart="28.2486" fromJunction="3way_75" toJunction="4way_30"/>
<trip id="90" depart="28.566000000000003" fromJunction="4way_57" toJunction="4way_25"/>
<trip id="91" depart="28.8834" fromJunction="4way_39" toJunction="4way_65"/>
<trip id="92" depart="29.2008" fromJunction="3way_36" toJunction="4way_14"/>
<trip id="93" depart="29.5182" fromJunction="3way_77" toJunction="4way_28"/>
<trip id="94" depart="29.835600000000003" fromJunction="4way_34" toJunction="3way_79"/>
<trip id="95" depart="30.153000000000002" fromJunction="4way_29" toJunction="4way_14"/>
<trip id="96" depart="30.4704" fromJunction="3way_74" toJunction="3way_76"/>
<trip id="97" depart="30.7878" fromJunction="4way_55" toJunction="3way_5"/>
<trip id="98" depart="31.1052" fromJunction="4way_49" toJunction="3way_36"/>
<trip id="99" depart="31.422600000000003" fromJunction="3way_71" toJunction="4way_19"/>
<trip id="100" depart="31.740000000000002" fromJunction="3way_6" toJunction="3way_2"/>
<trip id="101" depart="32.0574" fromJunction="4way_64" toJunction="4way_40"/>
<trip id="102" depart="32.3748" fromJunction="4way_69" toJunction="4way_65"/>
<trip id="103" depart="32.6922" fromJunction="3way_77" toJunction="4way_70"/>
<trip id="104" depart="33.0096" fromJunction="3way_73" toJunction="4way_31"/>
<trip id="105" depart="33.327" fromJunction="4way_32" toJunction="3way_2"/>
<trip id="106" depart="33.644400000000005" fromJunction="4way_19" toJunction="3way_36"/>
<trip id="107" depart="33.961800000000004" fromJunction="4way_15" toJunction="4way_39"/>
<trip id="108" depart="34.2792" fromJunction="4way_51" toJunction="4way_66"/>
<trip id="109" depart="34.5966" fromJunction="4way_59" toJunction="3way_63"/>
<trip id="110" depart="34.914" fromJunction="4way_43" toJunction="3way_79"/>
<trip id="111" depart="35.2314" fromJunction="3way_77" toJunction="4way_40"/>
<trip id="112" depart="35.5488" fromJunction="4way_14" toJunction="4way_34"/>
<trip id="113" depart="35.8662" fromJunction="3way_77" toJunction="3way_74"/>
<trip id="114" depart="36.1836" fromJunction="3way_2" toJunction="4way_47"/>
<trip id="115" depart="36.501000000000005" fromJunction="4way_46" toJunction="3way_78"/>
<trip id="116" depart="36.818400000000004" fromJunction="4way_11" toJunction="4way_10"/>
<trip id="117" depart="37.1358" fromJunction="4way_39" toJunction="3way_63"/>
<trip id="118" depart="37.4532" fromJunction="3way_35" toJunction="4way_42"/>
<trip id="119" depart="37.7706" fromJunction="3way_44" toJunction="4way_47"/>
<trip id="120" depart="38.088" fromJunction="4way_28" toJunction="4way_67"/>
<trip id="121" depart="38.4054" fromJunction="3way_79" toJunction="4way_21"/>
<trip id="122" depart="38.7228" fromJunction="4way_29" toJunction="3way_53"/>
<trip id="123" depart="39.0402" fromJunction="4way_34" toJunction="3way_9"/>
<trip id="124" depart="39.357600000000005" fromJunction="4way_23" toJunction="4way_32"/>
<trip id="125" depart="39.675000000000004" fromJunction="3way_7" toJunction="4way_69"/>
<trip id="126" depart="39.9924" fromJunction="4way_39" toJunction="4way_12"/>
<trip id="127" depart="40.3098" fromJunction="3way_54" toJunction="4way_52"/>
<trip id="128" depart="40.6272" fromJunction="3way_17" toJunction="3way_75"/>
<trip id="129" depart="40.9446" fromJunction="4way_25" toJunction="3way_2"/>
<trip id="130" depart="41.262" fromJunction="4way_50" toJunction="4way_31"/>
<trip id="131" depart="41.5794" fromJunction="4way_39" toJunction="3way_63"/>
<trip id="132" depart="41.8968" fromJunction="4way_29" toJunction="3way_5"/>
<trip id="133" depart="42.214200000000005" fromJunction="4way_51" toJunction="4way_61"/>
<trip id="134" depart="42.531600000000005" fromJunction="4way_52" toJunction="3way_18"/>
<trip id="135" depart="42.849000000000004" fromJunction="4way_43" toJunction="3way_76"/>
<trip id="136" depart="43.1664" fromJunction="4way_59" toJunction="4way_34"/>
<trip id="137" depart="43.4838" fromJunction="4way_51" toJunction="4way_66"/>
<trip id="138" depart="43.8012" fromJunction="4way_33" toJunction="3way_54"/>
<trip id="139" depart="44.1186" fromJunction="3way_2" toJunction="4way_57"/>
<trip id="140" depart="44.436" fromJunction="3way_53" toJunction="3way_18"/>
<trip id="141" depart="44.7534" fromJunction="4way_20" toJunction="4way_61"/>
<trip id="142" depart="45.070800000000006" fromJunction="4way_13" toJunction="4way_38"/>
<trip id="143" depart="45.388200000000005" fromJunction="3way_44" toJunction="4way_10"/>
<trip id="144" depart="45.705600000000004" fromJunction="3way_79" toJunction="4way_15"/>
<trip id="145" depart="46.023" fromJunction="3way_76" toJunction="4way_47"/>
<trip id="146" depart="46.3404" fromJunction="4way_42" toJunction="3way_17"/>
<trip id="147" depart="46.6578" fromJunction="4way_43" toJunction="4way_52"/>
<trip id="148" depart="46.9752" fromJunction="4way_41" toJunction="4way_69"/>
<trip id="149" depart="47.2926" fromJunction="3way_7" toJunction="3way_27"/>
<trip id="150" depart="47.61" fromJunction="3way_76" toJunction="4way_37"/>
<trip id="151" depart="47.927400000000006" fromJunction="3way_5" toJunction="3way_44"/>
<trip id="152" depart="48.244800000000005" fromJunction="3way_1" toJunction="4way_67"/>
<trip id="153" depart="48.562200000000004" fromJunction="3way_53" toJunction="4way_41"/>
<trip id="154" depart="48.8796" fromJunction="3way_75" toJunction="4way_31"/>
<trip id="155" depart="49.197" fromJunction="4way_12" toJunction="4way_46"/>
<trip id="156" depart="49.5144" fromJunction="4way_67" toJunction="4way_42"/>
<trip id="157" depart="49.8318" fromJunction="3way_44" toJunction="3way_73"/>
<trip id="158" depart="50.1492" fromJunction="3way_45" toJunction="3way_5"/>
<trip id="159" depart="50.4666" fromJunction="4way_11" toJunction="3way_73"/>
<trip id="160" depart="50.784000000000006" fromJunction="4way_49" toJunction="4way_40"/>
<trip id="161" depart="51.101400000000005" fromJunction="4way_19" toJunction="3way_63"/>
<trip id="162" depart="51.418800000000005" fromJunction="4way_50" toJunction="3way_71"/>
<trip id="163" depart="51.736200000000004" fromJunction="4way_49" toJunction="3way_5"/>
<trip id="164" depart="52.0536" fromJunction="4way_10" toJunction="3way_74"/>
<trip id="165" depart="52.371" fromJunction="3way_63" toJunction="4way_39"/>
<trip id="166" depart="52.6884" fromJunction="3way_78" toJunction="4way_10"/>
<trip id="167" depart="53.0058" fromJunction="3way_4" toJunction="4way_11"/>
<trip id="168" depart="53.3232" fromJunction="3way_6" toJunction="4way_59"/>
<trip id="169" depart="53.6406" fromJunction="3way_45" toJunction="4way_47"/>
<trip id="170" depart="53.958000000000006" fromJunction="4way_43" toJunction="4way_30"/>
<trip id="171" depart="54.275400000000005" fromJunction="3way_3" toJunction="4way_13"/>
<trip id="172" depart="54.592800000000004" fromJunction="4way_47" toJunction="4way_55"/>
<trip id="173" depart="54.9102" fromJunction="4way_40" toJunction="4way_65"/>
<trip id="174" depart="55.2276" fromJunction="3way_35" toJunction="3way_63"/>
<trip id="175" depart="55.545" fromJunction="4way_43" toJunction="4way_28"/>
<trip id="176" depart="55.8624" fromJunction="4way_69" toJunction="3way_79"/>
<trip id="177" depart="56.1798" fromJunction="4way_11" toJunction="4way_65"/>
<trip id="178" depart="56.4972" fromJunction="4way_11" toJunction="4way_51"/>
<trip id="179" depart="56.814600000000006" fromJunction="4way_28" toJunction="4way_67"/>
<trip id="180" depart="57.132000000000005" fromJunction="4way_49" toJunction="4way_69"/>
<trip id="181" depart="57.449400000000004" fromJunction="3way_27" toJunction="4way_49"/>
<trip id="182" depart="57.7668" fromJunction="4way_66" toJunction="4way_32"/>
<trip id="183" depart="58.0842" fromJunction="3way_62" toJunction="3way_75"/>
<trip id="184" depart="58.4016" fromJunction="4way_43" toJunction="4way_59"/>
<trip id="185" depart="58.719" fromJunction="4way_39" toJunction="4way_11"/>
<trip id="186" depart="59.0364" fromJunction="4way_11" toJunction="4way_42"/>
<trip id="187" depart="59.3538" fromJunction="4way_30" toJunction="4way_43"/>
<trip id="188" depart="59.671200000000006" fromJunction="4way_69" toJunction="4way_15"/>
<trip id="189" depart="59.988600000000005" fromJunction="3way_62" toJunction="4way_68"/>
<trip id="190" depart="60.306000000000004" fromJunction="4way_28" toJunction="4way_66"/>
<trip id="191" depart="60.623400000000004" fromJunction="4way_46" toJunction="3way_5"/>
<trip id="192" depart="60.9408" fromJunction="4way_33" toJunction="3way_74"/>
<trip id="193" depart="61.2582" fromJunction="4way_43" toJunction="3way_3"/>
<trip id="194" depart="61.5756" fromJunction="3way_79" toJunction="3way_2"/>
<trip id="195" depart="61.893" fromJunction="4way_25" toJunction="4way_28"/>
<trip id="196" depart="62.2104" fromJunction="4way_34" toJunction="3way_17"/>
<trip id="197" depart="62.527800000000006" fromJunction="4way_64" toJunction="4way_42"/>
<trip id="198" depart="62.845200000000006" fromJunction="3way_76" toJunction="3way_27"/>
<trip id="199" depart="63.162600000000005" fromJunction="3way_3" toJunction="4way_57"/>
<trip id="200" depart="63.480000000000004" fromJunction="4way_55" toJunction="3way_2"/>
<trip id="201" depart="63.7974" fromJunction="3way_74" toJunction="3way_6"/>
<trip id="202" depart="64.1148" fromJunction="3way_74" toJunction="3way_76"/>
<trip id="203" depart="64.43220000000001" fromJunction="3way_1" toJunction="3way_44"/>
<trip id="204" depart="64.7496" fromJunction="4way_57" toJunction="3way_26"/>
<trip id="205" depart="65.06700000000001" fromJunction="4way_70" toJunction="4way_61"/>
<trip id="206" depart="65.3844" fromJunction="3way_62" toJunction="4way_37"/>
<trip id="207" depart="65.7018" fromJunction="4way_29" toJunction="4way_13"/>
<trip id="208" depart="66.0192" fromJunction="3way_6" toJunction="4way_70"/>
<trip id="209" depart="66.3366" fromJunction="3way_54" toJunction="4way_50"/>
<trip id="210" depart="66.654" fromJunction="4way_31" toJunction="3way_75"/>
<trip id="211" depart="66.9714" fromJunction="4way_31" toJunction="3way_75"/>
<trip id="212" depart="67.28880000000001" fromJunction="4way_46" toJunction="4way_47"/>
<trip id="213" depart="67.6062" fromJunction="3way_54" toJunction="4way_12"/>
<trip id="214" depart="67.92360000000001" fromJunction="4way_37" toJunction="4way_58"/>
<trip id="215" depart="68.241" fromJunction="4way_15" toJunction="3way_9"/>
<trip id="216" depart="68.5584" fromJunction="3way_4" toJunction="4way_25"/>
<trip id="217" depart="68.8758" fromJunction="3way_18" toJunction="3way_76"/>
<trip id="218" depart="69.1932" fromJunction="4way_61" toJunction="4way_68"/>
<trip id="219" depart="69.5106" fromJunction="4way_69" toJunction="4way_52"/>
<trip id="220" depart="69.828" fromJunction="4way_70" toJunction="3way_54"/>
<trip id="221" depart="70.14540000000001" fromJunction="3way_26" toJunction="3way_74"/>
<trip id="222" depart="70.4628" fromJunction="3way_76" toJunction="4way_43"/>
<trip id="223" depart="70.78020000000001" fromJunction="3way_5" toJunction="4way_49"/>
<trip id="224" depart="71.0976" fromJunction="4way_51" toJunction="4way_14"/>
<trip id="225" depart="71.415" fromJunction="4way_19" toJunction="3way_73"/>
<trip id="226" depart="71.7324" fromJunction="4way_23" toJunction="4way_10"/>
<trip id="227" depart="72.0498" fromJunction="3way_71" toJunction="3way_75"/>
<trip id="228" depart="72.3672" fromJunction="3way_45" toJunction="4way_64"/>
<trip id="229" depart="72.6846" fromJunction="3way_75" toJunction="4way_24"/>
<trip id="230" depart="73.00200000000001" fromJunction="4way_34" toJunction="4way_38"/>
<trip id="231" depart="73.3194" fromJunction="4way_42" toJunction="4way_66"/>
<trip id="232" depart="73.63680000000001" fromJunction="4way_23" toJunction="4way_34"/>
<trip id="233" depart="73.9542" fromJunction="4way_52" toJunction="4way_49"/>
<trip id="234" depart="74.2716" fromJunction="4way_64" toJunction="4way_70"/>
<trip id="235" depart="74.589" fromJunction="3way_54" toJunction="3way_6"/>
<trip id="236" depart="74.9064" fromJunction="4way_46" toJunction="3way_53"/>
<trip id="237" depart="75.2238" fromJunction="4way_48" toJunction="3way_44"/>
<trip id="238" depart="75.5412" fromJunction="4way_60" toJunction="4way_19"/>
<trip id="239" depart="75.85860000000001" fromJunction="4way_12" toJunction="4way_52"/>
<trip id="240" depart="76.176" fromJunction="4way_39" toJunction="3way_63"/>
<trip id="241" depart="76.49340000000001" fromJunction="4way_37" toJunction="4way_69"/>
<trip id="242" depart="76.8108" fromJunction="3way_73" toJunction="4way_12"/>
<trip id="243" depart="77.1282" fromJunction="4way_28" toJunction="4way_11"/>
<trip id="244" depart="77.4456" fromJunction="4way_38" toJunction="3way_74"/>
<trip id="245" depart="77.763" fromJunction="4way_10" toJunction="3way_45"/>
<trip id="246" depart="78.0804" fromJunction="4way_23" toJunction="4way_56"/>
<trip id="247" depart="78.3978" fromJunction="4way_25" toJunction="3way_27"/>
<trip id="248" depart="78.71520000000001" fromJunction="3way_4" toJunction="4way_42"/>
<trip id="249" depart="79.0326" fromJunction="4way_64" toJunction="3way_74"/>
<trip id="250" depart="79.35000000000001" fromJunction="3way_18" toJunction="3way_26"/>
<trip id="251" depart="79.6674" fromJunction="4way_40" toJunction="4way_14"/>
<trip id="252" depart="79.9848" fromJunction="4way_58" toJunction="4way_57"/>
<trip id="253" depart="80.3022" fromJunction="3way_18" toJunction="3way_78"/>
<trip id="254" depart="80.6196" fromJunction="4way_51" toJunction="4way_40"/>
<trip id="255" depart="80.937" fromJunction="3way_63" toJunction="4way_65"/>
<trip id="256" depart="81.2544" fromJunction="4way_58" toJunction="3way_3"/>
<trip id="257" depart="81.57180000000001" fromJunction="4way_10" toJunction="3way_1"/>
<trip id="258" depart="81.8892" fromJunction="4way_25" toJunction="4way_56"/>
<trip id="259" depart="82.20660000000001" fromJunction="4way_37" toJunction="3way_7"/>
<trip id="260" depart="82.524" fromJunction="3way_18" toJunction="3way_2"/>
<trip id="261" depart="82.84140000000001" fromJunction="3way_63" toJunction="4way_57"/>
<trip id="262" depart="83.1588" fromJunction="3way_26" toJunction="3way_77"/>
<trip id="263" depart="83.4762" fromJunction="4way_49" toJunction="4way_30"/>
<trip id="264" depart="83.7936" fromJunction="4way_43" toJunction="4way_31"/>
<trip id="265" depart="84.111" fromJunction="4way_13" toJunction="3way_1"/>
<trip id="266" depart="84.42840000000001" fromJunction="4way_39" toJunction="4way_48"/>
<trip id="267" depart="84.7458" fromJunction="3way_2" toJunction="4way_52"/>
<trip id="268" depart="85.06320000000001" fromJunction="4way_68" toJunction="4way_49"/>
<trip id="269" depart="85.3806" fromJunction="3way_27" toJunction="4way_47"/>
<trip id="270" depart="85.69800000000001" fromJunction="3way_17" toJunction="4way_50"/>
<trip id="271" depart="86.0154" fromJunction="4way_56" toJunction="4way_64"/>
<trip id="272" depart="86.3328" fromJunction="3way_7" toJunction="4way_49"/>
<trip id="273" depart="86.6502" fromJunction="4way_37" toJunction="3way_76"/>
<trip id="274" depart="86.9676" fromJunction="4way_60" toJunction="4way_57"/>
<trip id="275" depart="87.28500000000001" fromJunction="3way_44" toJunction="4way_57"/>
<trip id="276" depart="87.6024" fromJunction="4way_51" toJunction="4way_61"/>
<trip id="277" depart="87.91980000000001" fromJunction="4way_25" toJunction="4way_38"/>
<trip id="278" depart="88.2372" fromJunction="4way_25" toJunction="4way_65"/>
<trip id="279" depart="88.55460000000001" fromJunction="4way_52" toJunction="4way_15"/>
<trip id="280" depart="88.872" fromJunction="3way_3" toJunction="4way_16"/>
<trip id="281" depart="89.1894" fromJunction="4way_19" toJunction="3way_71"/>
<trip id="282" depart="89.5068" fromJunction="3way_45" toJunction="4way_43"/>
<trip id="283" depart="89.8242" fromJunction="4way_60" toJunction="3way_62"/>
<trip id="284" depart="90.14160000000001" fromJunction="4way_69" toJunction="4way_64"/>
<trip id="285" depart="90.459" fromJunction="4way_22" toJunction="3way_62"/>
<trip id="286" depart="90.77640000000001" fromJunction="3way_6" toJunction="4way_55"/>
<trip id="287" depart="91.0938" fromJunction="3way_74" toJunction="4way_49"/>
<trip id="288" depart="91.41120000000001" fromJunction="3way_5" toJunction="3way_4"/>
<trip id="289" depart="91.7286" fromJunction="4way_69" toJunction="3way_5"/>
<trip id="290" depart="92.046" fromJunction="4way_69" toJunction="4way_14"/>
<trip id="291" depart="92.3634" fromJunction="4way_56" toJunction="4way_31"/>
<trip id="292" depart="92.6808" fromJunction="4way_70" toJunction="3way_45"/>
<trip id="293" depart="92.99820000000001" fromJunction="4way_20" toJunction="3way_9"/>
<trip id="294" depart="93.3156" fromJunction="4way_61" toJunction="4way_19"/>
<trip id="295" depart="93.63300000000001" fromJunction="3way_27" toJunction="3way_71"/>
<trip id="296" depart="93.9504" fromJunction="3way_5" toJunction="4way_40"/>
<trip id="297" depart="94.26780000000001" fromJunction="4way_20" toJunction="4way_48"/>
<trip id="298" depart="94.5852" fromJunction="3way_75" toJunction="3way_63"/>
<trip id="299" depart="94.9026" fromJunction="4way_10" toJunction="4way_47"/>
<trip id="300" depart="95.22" fromJunction="3way_27" toJunction="4way_11"/>
<trip id="301" depart="95.5374" fromJunction="3way_44" toJunction="4way_52"/>
<trip id="302" depart="95.85480000000001" fromJunction="3way_18" toJunction="3way_17"/>
<trip id="303" depart="96.1722" fromJunction="4way_22" toJunction="4way_39"/>
<trip id="304" depart="96.48960000000001" fromJunction="4way_70" toJunction="4way_28"/>
<trip id="305" depart="96.807" fromJunction="4way_67" toJunction="3way_9"/>
<trip id="306" depart="97.12440000000001" fromJunction="4way_68" toJunction="4way_13"/>
<trip id="307" depart="97.4418" fromJunction="4way_60" toJunction="4way_61"/>
<trip id="308" depart="97.7592" fromJunction="4way_49" toJunction="4way_32"/>
<trip id="309" depart="98.0766" fromJunction="3way_53" toJunction="3way_27"/>
<trip id="310" depart="98.394" fromJunction="3way_75" toJunction="3way_5"/>
<trip id="311" depart="98.71140000000001" fromJunction="4way_56" toJunction="4way_55"/>
<trip id="312" depart="99.0288" fromJunction="4way_43" toJunction="4way_41"/>
<trip id="313" depart="99.34620000000001" fromJunction="3way_26" toJunction="3way_35"/>
<trip id="314" depart="99.6636" fromJunction="4way_23" toJunction="4way_39"/>
<trip id="315" depart="99.98100000000001" fromJunction="4way_34" toJunction="4way_33"/>
<trip id="316" depart="100.2984" fromJunction="4way_28" toJunction="4way_61"/>
<trip id="317" depart="100.61580000000001" fromJunction="3way_53" toJunction="4way_19"/>
<trip id="318" depart="100.9332" fromJunction="4way_22" toJunction="4way_40"/>
<trip id="319" depart="101.2506" fromJunction="3way_17" toJunction="4way_42"/>
<trip id="320" depart="101.56800000000001" fromJunction="4way_30" toJunction="4way_38"/>
<trip id="321" depart="101.8854" fromJunction="3way_71" toJunction="3way_75"/>
<trip id="322" depart="102.20280000000001" fromJunction="3way_5" toJunction="4way_42"/>
<trip id="323" depart="102.5202" fromJunction="3way_26" toJunction="4way_20"/>
<trip id="324" depart="102.83760000000001" fromJunction="4way_61" toJunction="4way_11"/>
<trip id="325" depart="103.155" fromJunction="4way_33" toJunction="4way_46"/>
<trip id="326" depart="103.47240000000001" fromJunction="3way_73" toJunction="3way_35"/>
<trip id="327" depart="103.7898" fromJunction="4way_28" toJunction="4way_37"/>
<trip id="328" depart="104.1072" fromJunction="3way_18" toJunction="4way_31"/>
<trip id="329" depart="104.4246" fromJunction="4way_13" toJunction="4way_58"/>
<trip id="330" depart="104.742" fromJunction="4way_55" toJunction="4way_28"/>
<trip id="331" depart="105.05940000000001" fromJunction="3way_6" toJunction="4way_57"/>
<trip id="332" depart="105.3768" fromJunction="4way_22" toJunction="4way_15"/>
<trip id="333" depart="105.69420000000001" fromJunction="4way_65" toJunction="4way_67"/>
<trip id="334" depart="106.0116" fromJunction="4way_37" toJunction="3way_26"/>
<trip id="335" depart="106.32900000000001" fromJunction="3way_36" toJunction="4way_37"/>
<trip id="336" depart="106.6464" fromJunction="4way_14" toJunction="3way_3"/>
<trip id="337" depart="106.9638" fromJunction="4way_48" toJunction="3way_26"/>
<trip id="338" depart="107.2812" fromJunction="4way_66" toJunction="4way_58"/>
<trip id="339" depart="107.5986" fromJunction="3way_17" toJunction="4way_43"/>
<trip id="340" depart="107.91600000000001" fromJunction="3way_3" toJunction="4way_42"/>
<trip id="341" depart="108.2334" fromJunction="4way_37" toJunction="4way_65"/>
<trip id="342" depart="108.55080000000001" fromJunction="4way_10" toJunction="4way_56"/>
<trip id="343" depart="108.8682" fromJunction="3way_2" toJunction="3way_79"/>
<trip id="344" depart="109.18560000000001" fromJunction="4way_24" toJunction="4way_47"/>
<trip id="345" depart="109.503" fromJunction="3way_76" toJunction="4way_10"/>
<trip id="346" depart="109.8204" fromJunction="3way_17" toJunction="3way_76"/>
<trip id="347" depart="110.1378" fromJunction="3way_6" toJunction="3way_73"/>
<trip id="348" depart="110.4552" fromJunction="4way_33" toJunction="3way_6"/>
<trip id="349" depart="110.77260000000001" fromJunction="4way_21" toJunction="3way_62"/>
<trip id="350" depart="111.09" fromJunction="4way_11" toJunction="4way_41"/>
<trip id="351" depart="111.40740000000001" fromJunction="3way_78" toJunction="3way_53"/>
<trip id="352" depart="111.7248" fromJunction="4way_56" toJunction="4way_55"/>
<trip id="353" depart="112.04220000000001" fromJunction="4way_50" toJunction="3way_18"/>
<trip id="354" depart="112.3596" fromJunction="4way_25" toJunction="4way_23"/>
<trip id="355" depart="112.677" fromJunction="4way_60" toJunction="3way_3"/>
<trip id="356" depart="112.9944" fromJunction="4way_51" toJunction="4way_28"/>
<trip id="357" depart="113.3118" fromJunction="4way_70" toJunction="4way_49"/>
<trip id="358" depart="113.62920000000001" fromJunction="4way_10" toJunction="4way_32"/>
<trip id="359" depart="113.9466" fromJunction="4way_10" toJunction="4way_38"/>
<trip id="360" depart="114.26400000000001" fromJunction="3way_73" toJunction="4way_10"/>
<trip id="361" depart="114.5814" fromJunction="4way_40" toJunction="4way_38"/>
<trip id="362" depart="114.89880000000001" fromJunction="4way_56" toJunction="3way_63"/>
<trip id="363" depart="115.2162" fromJunction="3way_62" toJunction="3way_35"/>
<trip id="364" depart="115.5336" fromJunction="4way_52" toJunction="3way_4"/>
<trip id="365" depart="115.851" fromJunction="3way_71" toJunction="3way_1"/>
<trip id="366" depart="116.1684" fromJunction="3way_7" toJunction="4way_57"/>
<trip id="367" depart="116.48580000000001" fromJunction="4way_67" toJunction="4way_51"/>
<trip id="368" depart="116.8032" fromJunction="4way_47" toJunction="4way_52"/>