<routes xmlns:xsi="http://www.w3.org/2001/XMLSchema-instance" xsi:noNamespaceSchemaLocation="http://sumo.dlr.de/xsd/routes_file.xsd">
<trip id="0" depart="0.0" fromJunction="4way_24" toJunction="4way_36"/>
<trip id="1" depart="2.8571" fromJunction="4way_36" toJunction="4way_23"/>
<trip id="2" depart="5.7142" fromJunction="4way_37" toJunction="3way_7"/>
<trip id="3" depart="8.5713" fromJunction="4way_12" toJunction="3way_7"/>
<trip id="4" depart="11.4284" fromJunction="3way_21" toJunction="4way_33"/>
<trip id="5" depart="14.285499999999999" fromJunction="4way_29" toJunction="4way_11"/>
<trip id="6" depart="17.1426" fromJunction="4way_19" toJunction="4way_9"/>
<trip id="7" depart="19.9997" fromJunction="4way_25" toJunction="3way_1"/>
<trip id="8" depart="22.8568" fromJunction="4way_39" toJunction="4way_11"/>
<trip id="9" depart="25.7139" fromJunction="4way_11" toJunction="4way_40"/>
<trip id="10" depart="28.570999999999998" fromJunction="4way_11" toJunction="4way_8"/>
<trip id="11" depart="31.4281" fromJunction="4way_30" toJunction="3way_13"/>
<trip id="12" depart="34.2852" fromJunction="4way_26" toJunction="3way_20"/>
<trip id="13" depart="37.1423" fromJunction="3way_14" toJunction="4way_29"/>
<trip id="14" depart="39.9994" fromJunction="4way_38" toJunction="3way_46"/>
<trip id="15" depart="42.8565" fromJunction="4way_9" toJunction="4way_8"/>
<trip id="16" depart="45.7136" fromJunction="4way_23" toJunction="3way_1"/>
<trip id="17" depart="48.5707" fromJunction="4way_10" toJunction="4way_26"/>
<trip id="18" depart="51.4278" fromJunction="3way_7" toJunction="3way_28"/>
<trip id="19" depart="54.2849" fromJunction="3way_3" toJunction="4way_17"/>
<trip id="20" depart="57.141999999999996" fromJunction="3way_13" toJunction="3way_41"/>
<trip id="21" depart="59.9991" fromJunction="3way_28" toJunction="3way_43"/>
<trip id="22" depart="62.8562" fromJunction="3way_7" toJunction="4way_9"/>
<trip id="23" depart="65.7133" fromJunction="3way_5" toJunction="4way_40"/>
<trip id="24" depart="68.5704" fromJunction="3way_27" toJunction="3way_41"/>
<trip id="25" depart="71.4275" fromJunction="3way_46" toJunction="4way_37"/>
<trip id="26" depart="74.2846" fromJunction="3way_47" toJunction="4way_8"/>
<trip id="27" depart="77.1417" fromJunction="3way_5" toJunction="3way_27"/>
<trip id="28" depart="79.9988" fromJunction="3way_20" toJunction="4way_37"/>
<trip id="29" depart="82.8559" fromJunction="3way_28" toJunction="3way_34"/>
<trip id="30" depart="85.713" fromJunction="3way_5" toJunction="4way_18"/>
<trip id="31" depart="88.5701" fromJunction="3way_5" toJunction="4way_25"/>
<trip id="32" depart="91.4272" fromJunction="4way_15" toJunction="4way_33"/>
<trip id="33" depart="94.2843" fromJunction="4way_23" toJunction="4way_33"/>
<trip id="34" depart="97.1414" fromJunction="3way_2" toJunction="4way_31"/>
<trip id="35" depart="99.99849999999999" fromJunction="3way_13" toJunction="3way_45"/>
<trip id="36" depart="102.8556" fromJunction="3way_13" toJunction="3way_44"/>
<trip id="37" depart="105.7127" fromJunction="3way_14" toJunction="3way_43"/>
<trip id="38" depart="108.5698" fromJunction="4way_17" toJunction="3way_3"/>
<trip id="39" depart="111.4269" fromJunction="3way_46" toJunction="4way_9"/>
<trip id="40" depart="114.28399999999999" fromJunction="3way_5" toJunction="4way_29"/>
<trip id="41" depart="117.1411" fromJunction="4way_19" toJunction="4way_9"/>
<trip id="42" depart="119.9982" fromJunction="4way_10" toJunction="3way_43"/>
<trip id="43" depart="122.8553" fromJunction="4way_24" toJunction="3way_13"/>
<trip id="44" depart="125.7124" fromJunction="3way_34" toJunction="3way_44"/>
<trip id="45" depart="128.5695" fromJunction="3way_1" toJunction="4way_16"/>
<trip id="46" depart="131.4266" fromJunction="3way_1" toJunction="4way_25"/>
<trip id="47" depart="134.2837" fromJunction="3way_45" toJunction="4way_10"/>
<trip id="48" depart="137.1408" fromJunction="4way_33" toJunction="4way_31"/>
<trip id="49" depart="139.9979" fromJunction="4way_9" toJunction="3way_46"/>
<trip id="50" depart="142.855" fromJunction="4way_9" toJunction="4way_16"/>
<trip id="51" depart="145.7121" fromJunction="4way_26" toJunction="3way_47"/>
<trip id="52" depart="148.5692" fromJunction="4way_32" toJunction="4way_8"/>
<trip id="53" depart="151.4263" fromJunction="3way_44" toJunction="4way_17"/>
<trip id="54" depart="154.2834" fromJunction="3way_21" toJunction="4way_18"/>
<trip id="55" depart="157.1405" fromJunction="4way_16" toJunction="4way_39"/>
<trip id="56" depart="159.9976" fromJunction="4way_17" toJunction="4way_39"/>
<trip id="57" depart="162.8547" fromJunction="4way_22" toJunction="4way_24"/>
<trip id="58" depart="165.7118" fromJunction="4way_30" toJunction="4way_33"/>
<trip id="59" depart="168.56889999999999" fromJunction="4way_23" toJunction="3way_7"/>
<trip id="60" depart="171.426" fromJunction="3way_44" toJunction="3way_1"/>
<trip id="61" depart="174.2831" fromJunction="3way_44" toJunction="4way_37"/>
<trip id="62" depart="177.1402" fromJunction="3way_7" toJunction="4way_23"/>
<trip id="63" depart="179.9973" fromJunction="3way_44" toJunction="3way_20"/>
<trip id="64" depart="182.8544" fromJunction="4way_16" toJunction="4way_9"/>
<trip id="65" depart="185.7115" fromJunction="4way_37" toJunction="4way_9"/>
<trip id="66" depart="188.5686" fromJunction="3way_7" toJunction="4way_37"/>
<trip id="67" depart="191.4257" fromJunction="3way_28" toJunction="4way_12"/>
<trip id="68" depart="194.2828" fromJunction="4way_12" toJunction="3way_7"/>
<trip id="69" depart="197.1399" fromJunction="4way_17" toJunction="4way_18"/>
<trip id="70" depart="199.99699999999999" fromJunction="4way_19" toJunction="3way_5"/>
<trip id="71" depart="202.8541" fromJunction="4way_40" toJunction="4way_24"/>
<trip id="72" depart="205.7112" fromJunction="4way_39" toJunction="3way_20"/>
<trip id="73" depart="208.5683" fromJunction="4way_23" toJunction="3way_27"/>
<trip id="74" depart="211.4254" fromJunction="4way_32" toJunction="3way_13"/>
<trip id="75" depart="214.2825" fromJunction="4way_9" toJunction="4way_18"/>
<trip id="76" depart="217.1396" fromJunction="3way_4" toJunction="3way_14"/>
<trip id="77" depart="219.9967" fromJunction="4way_8" toJunction="4way_17"/>
<trip id="78" depart="222.8538" fromJunction="4way_32" toJunction="4way_24"/>
<trip id="79" depart="225.7109" fromJunction="4way_32" toJunction="4way_33"/>
<trip id="80" depart="228.56799999999998" fromJunction="3way_28" toJunction="3way_1"/>
<trip id="81" depart="231.4251" fromJunction="3way_27" toJunction="4way_24"/>
<trip id="82" depart="234.2822" fromJunction="3way_3" toJunction="4way_29"/>
<trip id="83" depart="237.1393" fromJunction="3way_1" toJunction="3way_34"/>
<trip id="84" depart="239.9964" fromJunction="3way_47" toJunction="4way_11"/>
<trip id="85" depart="242.8535" fromJunction="4way_19" toJunction="3way_35"/>
<trip id="86" depart="245.7106" fromJunction="3way_2" toJunction="4way_17"/>
<trip id="87" depart="248.5677" fromJunction="4way_23" toJunction="3way_27"/>
<trip id="88" depart="251.4248" fromJunction="3way_47" toJunction="4way_9"/>
<trip id="89" depart="254.2819" fromJunction="4way_23" toJunction="4way_26"/>
<trip id="90" depart="257.139" fromJunction="4way_16" toJunction="4way_36"/>
<trip id="91" depart="259.9961" fromJunction="3way_43" toJunction="4way_24"/>
<trip id="92" depart="262.8532" fromJunction="3way_41" toJunction="3way_21"/>
<trip id="93" depart="265.7103" fromJunction="4way_26" toJunction="3way_34"/>
<trip id="94" depart="268.5674" fromJunction="4way_22" toJunction="4way_31"/>
<trip id="95" depart="271.4245" fromJunction="3way_46" toJunction="3way_47"/>
<trip id="96" depart="274.2816" fromJunction="3way_7" toJunction="3way_3"/>
<trip id="97" depart="277.1387" fromJunction="4way_17" toJunction="3way_43"/>
<trip id="98" depart="279.9958" fromJunction="3way_34" toJunction="3way_28"/>
<trip id="99" depart="282.8529" fromJunction="3way_4" toJunction="3way_2"/>
<trip id="100" depart="285.71" fromJunction="4way_8" toJunction="4way_10"/>
<trip id="101" depart="288.5671" fromJunction="4way_12" toJunction="4way_36"/>
<trip id="102" depart="291.4242" fromJunction="3way_41" toJunction="4way_40"/>
<trip id="103" depart="294.2813" fromJunction="3way_46" toJunction="4way_37"/>
<trip id="104" depart="297.1384" fromJunction="4way_38" toJunction="3way_1"/>
<trip id="105" depart="299.9955" fromJunction="3way_21" toJunction="3way_43"/>
<trip id="106" depart="302.8526" fromJunction="4way_25" toJunction="4way_16"/>
<trip id="107" depart="305.7097" fromJunction="4way_39" toJunction="4way_30"/>
<trip id="108" depart="308.5668" fromJunction="4way_11" toJunction="3way_45"/>
<trip id="109" depart="311.4239" fromJunction="4way_26" toJunction="3way_34"/>
<trip id="110" depart="314.281" fromJunction="3way_41" toJunction="4way_10"/>
<trip id="111" depart="317.1381" fromJunction="4way_24" toJunction="4way_26"/>
<trip id="112" depart="319.9952" fromJunction="3way_41" toJunction="3way_46"/>
<trip id="113" depart="322.8523" fromJunction="3way_2" toJunction="4way_29"/>
<trip id="114" depart="325.7094" fromJunction="3way_7" toJunction="3way_41"/>
<trip id="115" depart="328.5665" fromJunction="4way_8" toJunction="3way_28"/>
<trip id="116" depart="331.4236" fromJunction="4way_16" toJunction="3way_45"/>
<trip id="117" depart="334.2807" fromJunction="3way_13" toJunction="4way_32"/>
<trip id="118" depart="337.13779999999997" fromJunction="3way_13" toJunction="4way_29"/>
<trip id="119" depart="339.9949" fromJunction="3way_21" toJunction="4way_24"/>
<trip id="120" depart="342.852" fromJunction="3way_34" toJunction="4way_9"/>
<trip id="121" depart="345.7091" fromJunction="4way_15" toJunction="3way_20"/>
<trip id="122" depart="348.5662" fromJunction="4way_26" toJunction="3way_28"/>
<trip id="123" depart="351.4233" fromJunction="4way_31" toJunction="4way_38"/>
<trip id="124" depart="354.2804" fromJunction="3way_4" toJunction="4way_12"/>
<trip id="125" depart="357.1375" fromJunction="4way_16" toJunction="4way_36"/>
<trip id="126" depart="359.9946" fromJunction="3way_44" toJunction="4way_33"/>
<trip id="127" depart="362.8517" fromJunction="3way_5" toJunction="3way_47"/>
<trip id="128" depart="365.7088" fromJunction="4way_19" toJunction="3way_1"/>
<trip id="129" depart="368.5659" fromJunction="4way_11" toJunction="4way_10"/>
<trip id="130" depart="371.423" fromJunction="4way_16" toJunction="3way_45"/>
<trip id="131" depart="374.2801" fromJunction="4way_15" toJunction="3way_3"/>
<trip id="132" depart="377.1372" fromJunction="4way_39" toJunction="4way_33"/>
<trip id="133" depart="379.9943" fromJunction="4way_33" toJunction="3way_35"/>
<trip id="134" depart="382.8514" fromJunction="4way_26" toJunction="3way_47"/>
<trip id="135" depart="385.7085" fromJunction="4way_11" toJunction="4way_26"/>
<trip id="136" depart="388.5656" fromJunction="4way_39" toJunction="4way_30"/>
<trip id="137" depart="391.4227" fromJunction="4way_32" toJunction="3way_44"/>
<trip id="138" depart="394.2798" fromJunction="3way_1" toJunction="4way_23"/>
<trip id="139" depart="397.13689999999997" fromJunction="3way_20" toJunction="3way_35"/>
<trip id="140" depart="399.99399999999997" fromJunction="4way_15" toJunction="4way_40"/>
<trip id="141" depart="402.8511" fromJunction="4way_30" toJunction="4way_22"/>
<trip id="142" depart="405.7082" fromJunction="3way_20" toJunction="3way_28"/>
<trip id="143" depart="408.5653" fromJunction="3way_34" toJunction="4way_18"/>
<trip id="144" depart="411.4224" fromJunction="3way_47" toJunction="4way_29"/>
<trip id="145" depart="414.2795" fromJunction="4way_32" toJunction="3way_5"/>
<trip id="146" depart="417.1366" fromJunction="4way_38" toJunction="4way_12"/>
<trip id="147" depart="419.9937" fromJunction="3way_4" toJunction="3way_43"/>
<trip id="148" depart="422.8508" fromJunction="3way_47" toJunction="3way_14"/>
<trip id="149" depart="425.7079" fromJunction="3way_3" toJunction="3way_13"/>
<trip id="150" depart="428.565" fromJunction="3way_1" toJunction="4way_24"/>
<trip id="151" depart="431.4221" fromJunction="3way_20" toJunction="4way_38"/>
<trip id="152" depart="434.2792" fromJunction="3way_5" toJunction="3way_4"/>
<trip id="153" depart="437.1363" fromJunction="3way_46" toJunction="4way_10"/>
<trip id="154" depart="439.9934" fromJunction="4way_9" toJunction="3way_14"/>
<trip id="155" depart="442.8505" fromJunction="4way_24" toJunction="4way_32"/>
<trip id="156" depart="445.7076" fromJunction="3way_13" toJunction="3way_45"/>
<trip id="157" depart="448.5647" fromJunction="3way_44" toJunction="3way_3"/>
<trip id="158" depart="451.4218" fromJunction="4way_8" toJunction="3way_46"/>
<trip id="159" depart="454.2789" fromJunction="4way_17" toJunction="4way_10"/>
<trip id="160" depart="457.13599999999997" fromJunction="3way_21" toJunction="3way_45"/>
<trip id="161" depart="459.99309999999997" fromJunction="4way_11" toJunction="3way_34"/>
<trip id="162" depart="462.8502" fromJunction="4way_17" toJunction="3way_3"/>
<trip id="163" depart="465.7073" fromJunction="4way_38" toJunction="4way_11"/>
<trip id="164" depart="468.5644" fromJunction="3way_28" toJunction="3way_46"/>
<trip id="165" depart="471.4215" fromJunction="3way_45" toJunction="4way_16"/>
<trip id="166" depart="474.2786" fromJunction="3way_34" toJunction="3way_28"/>
<trip id="167" depart="477.1357" fromJunction="3way_3" toJunction="4way_8"/>
<trip id="168" depart="479.9928" fromJunction="3way_4" toJunction="4way_11"/>
<trip id="169" depart="482.8499" fromJunction="3way_44" toJunction="4way_29"/>
<trip id="170" depart="485.707" fromJunction="4way_33" toJunction="4way_9"/>
<trip id="171" depart="488.5641" fromJunction="3way_2" toJunction="4way_37"/>
<trip id="172" depart="491.4212" fromJunction="4way_22" toJunction="3way_7"/>
<trip id="173" depart="494.2783" fromJunction="4way_10" toJunction="4way_36"/>
<trip id="174" depart="497.1354" fromJunction="3way_13" toJunction="3way_45"/>
<trip id="175" depart="499.9925" fromJunction="4way_33" toJunction="3way_21"/>
<trip id="176" depart="502.8496" fromJunction="4way_12" toJunction="3way_34"/>
<trip id="177" depart="505.7067" fromJunction="4way_8" toJunction="4way_36"/>
<trip id="178" depart="508.5638" fromJunction="4way_8" toJunction="4way_39"/>
<trip id="179" depart="511.4209" fromJunction="3way_21" toJunction="4way_24"/>
<trip id="180" depart="514.278" fromJunction="4way_17" toJunction="4way_12"/>
<trip id="181" depart="517.1351" fromJunction="3way_43" toJunction="4way_17"/>
<trip id="182" depart="519.9922" fromJunction="4way_30" toJunction="4way_38"/>
<trip id="183" depart="522.8493" fromJunction="3way_27" toJunction="3way_47"/>
<trip id="184" depart="525.7064" fromJunction="4way_33" toJunction="4way_11"/>
<trip id="185" depart="528.5635" fromJunction="4way_16" toJunction="4way_8"/>
<trip id="186" depart="531.4206" fromJunction="4way_8" toJunction="4way_32"/>
<trip id="187" depart="534.2777" fromJunction="4way_9" toJunction="4way_26"/>
<trip id="188" depart="537.1348" fromJunction="4way_12" toJunction="4way_18"/>
<trip id="189" depart="539.9919" fromJunction="3way_27" toJunction="4way_18"/>
<trip id="190" depart="542.849" fromJunction="3way_21" toJunction="4way_30"/>
<trip id="191" depart="545.7061" fromJunction="3way_7" toJunction="3way_3"/>
<trip id="192" depart="548.5632" fromJunction="4way_32" toJunction="3way_46"/>
<trip id="193" depart="551.4203" fromJunction="4way_33" toJunction="3way_2"/>
<trip id="194" depart="554.2774" fromJunction="3way_28" toJunction="3way_35"/>
<trip id="195" depart="557.1345" fromJunction="3way_34" toJunction="3way_1"/>
<trip id="196" depart="559.9916" fromJunction="4way_19" toJunction="3way_14"/>
<trip id="197" depart="562.8487" fromJunction="4way_26" toJunction="3way_5"/>
<trip id="198" depart="565.7058" fromJunction="4way_8" toJunction="4way_39"/>
<trip id="199" depart="568.5629" fromJunction="3way_47" toJunction="3way_43"/>
<trip id="200" depart="571.42" fromJunction="3way_2" toJunction="4way_23"/>
<trip id="201" depart="574.2771" fromJunction="3way_7" toJunction="3way_1"/>
<trip id="202" depart="577.1342" fromJunction="3way_46" toJunction="3way_4"/>
<trip id="203" depart="579.9913" fromJunction="3way_46" toJunction="3way_41"/>
<trip id="204" depart="582.8484" fromJunction="3way_1" toJunction="3way_13"/>
<trip id="205" depart="585.7055" fromJunction="4way_23" toJunction="3way_13"/>
<trip id="206" depart="588.5626" fromJunction="4way_40" toJunction="4way_33"/>
<trip id="207" depart="591.4197" fromJunction="3way_27" toJunction="3way_14"/>
<trip id="208" depart="594.2768" fromJunction="4way_22" toJunction="4way_30"/>
<trip id="209" depart="597.1339" fromJunction="3way_3" toJunction="4way_40"/>
<trip id="210" depart="599.991" fromJunction="3way_45" toJunction="4way_11"/>
<trip id="211" depart="602.8481" fromJunction="4way_37" toJunction="3way_47"/>
<trip id="212" depart="605.7052" fromJunction="4way_37" toJunction="3way_46"/>
<trip id="213" depart="608.5623" fromJunction="3way_7" toJunction="4way_29"/>
<trip id="214" depart="611.4194" fromJunction="3way_45" toJunction="4way_36"/>
<trip id="215" depart="614.2764999999999" fromJunction="3way_14" toJunction="4way_17"/>
<trip id="216" depart="617.1336" fromJunction="4way_25" toJunction="3way_28"/>
<trip id="217" depart="619.9907" fromJunction="3way_3" toJunction="4way_19"/>
<trip id="218" depart="622.8478" fromJunction="3way_35" toJunction="3way_47"/>
<trip id="219" depart="625.7049" fromJunction="4way_40" toJunction="4way_18"/>
<trip id="220" depart="628.562" fromJunction="4way_12" toJunction="4way_33"/>
<trip id="221" depart="631.4191" fromJunction="4way_40" toJunction="3way_44"/>
<trip id="222" depart="634.2762" fromJunction="3way_5" toJunction="3way_46"/>
<trip id="223" depart="637.1333" fromJunction="3way_47" toJunction="4way_26"/>
<trip id="224" depart="639.9904" fromJunction="3way_3" toJunction="4way_17"/>
<trip id="225" depart="642.8475" fromJunction="4way_39" toJunction="4way_24"/>
<trip id="226" depart="645.7046" fromJunction="3way_21" toJunction="3way_45"/>
<trip id="227" depart="648.5617" fromJunction="4way_31" toJunction="3way_28"/>
<trip id="228" depart="651.4188" fromJunction="3way_27" toJunction="3way_47"/>
<trip id="229" depart="654.2759" fromJunction="3way_44" toJunction="4way_8"/>
<trip id="230" depart="657.133" fromJunction="3way_47" toJunction="4way_25"/>
<trip id="231" depart="659.9901" fromJunction="4way_26" toJunction="4way_22"/>
<trip id="232" depart="662.8472" fromJunction="4way_39" toJunction="4way_30"/>
<trip id="233" depart="665.7043" fromJunction="4way_31" toJunction="4way_26"/>
<trip id="234" depart="668.5614" fromJunction="4way_33" toJunction="4way_17"/>
<trip id="235" depart="671.4185" fromJunction="4way_8" toJunction="4way_40"/>
<trip id="236" depart="674.2755999999999" fromJunction="3way_44" toJunction="3way_4"/>
<trip id="237" depart="677.1327" fromJunction="3way_14" toJunction="3way_20"/>
<trip id="238" depart="679.9898" fromJunction="4way_23" toJunction="3way_13"/>
<trip id="239" depart="682.8469" fromJunction="4way_12" toJunction="3way_21"/>
<trip id="240" depart="685.704" fromJunction="4way_36" toJunction="4way_33"/>
<trip id="241" depart="688.5611" fromJunction="4way_16" toJunction="3way_45"/>
<trip id="242" depart="691.4182" fromJunction="3way_14" toJunction="4way_12"/>
<trip id="243" depart="694.2753" fromJunction="3way_45" toJunction="4way_36"/>
<trip id="244" depart="697.1324" fromJunction="3way_14" toJunction="4way_8"/>
<trip id="245" depart="699.9895" fromJunction="4way_22" toJunction="3way_46"/>
<trip id="246" depart="702.8466" fromJunction="3way_28" toJunction="3way_44"/>
<trip id="247" depart="705.7037" fromJunction="4way_31" toJunction="4way_29"/>
<trip id="248" depart="708.5608" fromJunction="4way_19" toJunction="3way_35"/>
<trip id="249" depart="711.4179" fromJunction="3way_3" toJunction="4way_32"/>
<trip id="250" depart="714.275" fromJunction="4way_8" toJunction="3way_46"/>
<trip id="251" depart="717.1321" fromJunction="3way_35" toJunction="3way_5"/>
<trip id="252" depart="719.9892" fromJunction="4way_10" toJunction="4way_31"/>
<trip id="253" depart="722.8463" fromJunction="4way_17" toJunction="4way_30"/>
<trip id="254" depart="725.7034" fromJunction="3way_35" toJunction="3way_41"/>
<trip id="255" depart="728.5605" fromJunction="4way_39" toJunction="4way_10"/>
<trip id="256" depart="731.4176" fromJunction="3way_45" toJunction="4way_36"/>
<trip id="257" depart="734.2746999999999" fromJunction="4way_17" toJunction="3way_2"/>
<trip id="258" depart="737.1318" fromJunction="3way_28" toJunction="3way_1"/>
<trip id="259" depart="739.9889" fromJunction="4way_19" toJunction="4way_29"/>
<trip id="260" depart="742.846" fromJunction="3way_14" toJunction="3way_5"/>
<trip id="261" depart="745.7031" fromJunction="3way_35" toJunction="3way_2"/>
<trip id="262" depart="748.5602" fromJunction="3way_45" toJunction="4way_30"/>
<trip id="263" depart="751.4173" fromJunction="3way_13" toJunction="3way_41"/>
<trip id="264" depart="754.2744" fromJunction="4way_17" toJunction="4way_9"/>
<trip id="265" depart="757.1315" fromJunction="4way_26" toJunction="4way_10"/>
<trip id="266" depart="759.9886" fromJunction="4way_37" toJunction="3way_1"/>
<trip id="267" depart="762.8457" fromJunction="4way_16" toJunction="4way_23"/>
<trip id="268" depart="765.7028" fromJunction="3way_1" toJunction="4way_33"/>
<trip id="269" depart="768.5599" fromJunction="4way_18" toJunction="4way_17"/>
<trip id="270" depart="771.417" fromJunction="3way_35" toJunction="4way_22"/>
<trip id="271" depart="774.2741" fromJunction="3way_5" toJunction="4way_11"/>
<trip id="272" depart="777.1312" fromJunction="4way_29" toJunction="3way_7"/>
<trip id="273" depart="779.9883" fromJunction="3way_5" toJunction="4way_17"/>
<trip id="274" depart="782.8454" fromJunction="3way_14" toJunction="3way_47"/>
<trip id="275" depart="785.7025" fromJunction="4way_39" toJunction="4way_30"/>
<trip id="276" depart="788.5596" fromJunction="3way_20" toJunction="4way_23"/>
<trip id="277" depart="791.4167" fromJunction="4way_39" toJunction="4way_40"/>
<trip id="278" depart="794.2737999999999" fromJunction="4way_19" toJunction="4way_22"/>
<trip id="279" depart="797.1309" fromJunction="4way_19" toJunction="4way_36"/>
<trip id="280" depart="799.9879999999999" fromJunction="4way_33" toJunction="4way_25"/>
<trip id="281" depart="802.8451" fromJunction="3way_2" toJunction="4way_19"/>
<trip id="282" depart="805.7022" fromJunction="3way_21" toJunction="3way_27"/>
<trip id="283" depart="808.5593" fromJunction="3way_44" toJunction="4way_26"/>
<trip id="284" depart="811.4164" fromJunction="4way_39" toJunction="3way_27"/>
<trip id="285" depart="814.2735" fromJunction="4way_12" toJunction="4way_8"/>
<trip id="286" depart="817.1306" fromJunction="4way_37" toJunction="3way_27"/>
<trip id="287" depart="819.9877" fromJunction="3way_4" toJunction="3way_7"/>
<trip id="288" depart="822.8448" fromJunction="3way_46" toJunction="4way_17"/>
<trip id="289" depart="825.7019" fromJunction="3way_3" toJunction="3way_2"/>
<trip id="290" depart="828.559" fromJunction="4way_12" toJunction="3way_3"/>
<trip id="291" depart="831.4161" fromJunction="4way_12" toJunction="4way_31"/>
<trip id="292" depart="834.2732" fromJunction="4way_29" toJunction="4way_10"/>
<trip id="293" depart="837.1303" fromJunction="4way_40" toJunction="3way_44"/>
<trip id="294" depart="839.9874" fromJunction="4way_15" toJunction="3way_28"/>
<trip id="295" depart="842.8445" fromJunction="4way_40" toJunction="3way_21"/>
<trip id="296" depart="845.7016" fromJunction="3way_43" toJunction="3way_27"/>
<trip id="297" depart="848.5587" fromJunction="3way_3" toJunction="4way_10"/>
<trip id="298" depart="851.4158" fromJunction="4way_15" toJunction="4way_23"/>
<trip id="299" depart="854.2728999999999" fromJunction="3way_47" toJunction="3way_45"/>
<trip id="300" depart="857.13" fromJunction="3way_28" toJunction="4way_29"/>
<trip id="301" depart="859.9870999999999" fromJunction="3way_35" toJunction="4way_8"/>
<trip id="302" depart="862.8442" fromJunction="3way_20" toJunction="4way_33"/>
<trip id="303" depart="865.7013" fromJunction="3way_35" toJunction="3way_5"/>
<trip id="304" depart="868.5584" fromJunction="4way_37" toJunction="4way_16"/>
<trip id="305" depart="871.4155" fromJunction="4way_40" toJunction="3way_21"/>
<trip id="306" depart="874.2726" fromJunction="4way_24" toJunction="3way_35"/>
<trip id="307" depart="877.1297" fromJunction="4way_18" toJunction="4way_30"/>
<trip id="308" depart="879.9868" fromJunction="4way_12" toJunction="4way_33"/>
<trip id="309" depart="882.8439" fromJunction="4way_17" toJunction="4way_38"/>
<trip id="310" depart="885.701" fromJunction="3way_20" toJunction="3way_35"/>
<trip id="311" depart="888.5581" fromJunction="3way_47" toJunction="3way_3"/>
<trip id="312" depart="891.4152" fromJunction="4way_29" toJunction="3way_7"/>
<trip id="313" depart="894.2723" fromJunction="4way_33" toJunction="4way_38"/>
<trip id="314" depart="897.1294" fromJunction="3way_5" toJunction="3way_13"/>
<trip id="315" depart="899.9865" fromJunction="4way_31" toJunction="4way_16"/>
<trip id="316" depart="902.8436" fromJunction="4way_26" toJunction="4way_32"/>
<trip id="317" depart="905.7007" fromJunction="3way_21" toJunction="4way_40"/>
<trip id="318" depart="908.5578" fromJunction="3way_20" toJunction="3way_21"/>
<trip id="319" depart="911.4149" fromJunction="4way_37" toJunction="4way_10"/>
<trip id="320" depart="914.2719999999999" fromJunction="3way_5" toJunction="4way_32"/>
<trip id="321" depart="917.1291" fromJunction="4way_16" toJunction="4way_22"/>
<trip id="322" depart="919.9861999999999" fromJunction="3way_27" toJunction="3way_47"/>
<trip id="323" depart="922.8433" fromJunction="3way_3" toJunction="4way_32"/>
<trip id="324" depart="925.7004" fromJunction="3way_13" toJunction="4way_15"/>
<trip id="325" depart="928.5575" fromJunction="4way_40" toJunction="4way_8"/>
<trip id="326" depart="931.4146" fromJunction="4way_32" toJunction="3way_7"/>
<trip id="327" depart="934.2717" fromJunction="3way_45" toJunction="3way_13"/>
<trip id="328" depart="937.1288" fromJunction="3way_21" toJunction="3way_14"/>
<trip id="329" depart="939.9859" fromJunction="3way_35" toJunction="4way_10"/>
<trip id="330" depart="942.843" fromJunction="4way_30" toJunction="4way_24"/>
<trip id="331" depart="945.7001" fromJunction="3way_7" toJunction="3way_21"/>
<trip id="332" depart="948.5572" fromJunction="3way_4" toJunction="4way_23"/>
<trip id="333" depart="951.4143" fromJunction="4way_37" toJunction="4way_25"/>
<trip id="334" depart="954.2714" fromJunction="4way_36" toJunction="4way_24"/>
<trip id="335" depart="957.1285" fromJunction="3way_14" toJunction="3way_5"/>
<trip id="336" depart="959.9856" fromJunction="3way_43" toJunction="3way_14"/>
<trip id="337" depart="962.8427" fromJunction="4way_31" toJunction="3way_2"/>
<trip id="338" depart="965.6998" fromJunction="4way_23" toJunction="3way_5"/>
<trip id="339" depart="968.5569" fromJunction="4way_30" toJunction="4way_17"/>
<trip id="340" depart="971.414" fromJunction="3way_5" toJunction="4way_33"/>
<trip id="341" depart="974.2711" fromJunction="3way_2" toJunction="4way_39"/>
<trip id="342" depart="977.1282" fromJunction="3way_14" toJunction="4way_36"/>
<trip id="343" depart="979.9852999999999" fromJunction="3way_28" toJunction="4way_29"/>
<trip id="344" depart="982.8424" fromJunction="3way_1" toJunction="3way_34"/>
<trip id="345" depart="985.6995" fromJunction="4way_25" toJunction="4way_29"/>
<trip id="346" depart="988.5566" fromJunction="3way_47" toJunction="3way_28"/>
<trip id="347" depart="991.4137" fromJunction="3way_5" toJunction="3way_41"/>
<trip id="348" depart="994.2708" fromJunction="3way_3" toJunction="3way_46"/>
<trip id="349" depart="997.1279" fromJunction="4way_32" toJunction="3way_3"/>
<trip id="350" depart="999.985" fromJunction="4way_9" toJunction="3way_27"/>
<trip id="351" depart="1002.8421" fromJunction="4way_8" toJunction="4way_38"/>
<trip id="352" depart="1005.6992" fromJunction="3way_34" toJunction="3way_20"/>
<trip id="353" depart="1008.5563" fromJunction="4way_29" toJunction="3way_7"/>
<trip id="354" depart="1011.4134" fromJunction="4way_11" toJunction="3way_35"/>
<trip id="355" depart="1014.2705" fromJunction="4way_19" toJunction="4way_31"/>
<trip id="356" depart="1017.1276" fromJunction="4way_12" toJunction="3way_2"/>
<trip id="357" depart="1019.9847" fromJunction="4way_39" toJunction="3way_21"/>
<trip id="358" depart="1022.8418" fromJunction="4way_40" toJunction="4way_17"/>
<trip id="359" depart="1025.6989" fromJunction="3way_28" toJunction="4way_38"/>
<trip id="360" depart="1028.556" fromJunction="3way_28" toJunction="4way_22"/>
<trip id="361" depart="1031.4131" fromJunction="3way_46" toJunction="3way_28"/>
<trip id="362" depart="1034.2702" fromJunction="4way_10" toJunction="4way_22"/>
<trip id="363" depart="1037.1272999999999" fromJunction="4way_29" toJunction="3way_45"/>
<trip id="364" depart="1039.9844" fromJunction="3way_27" toJunction="3way_13"/>
<trip id="365" depart="1042.8415" fromJunction="4way_33" toJunction="3way_3"/>
<trip id="366" depart="1045.6986" fromJunction="3way_34" toJunction="3way_1"/>
<trip id="367" depart="1048.5557" fromJunction="3way_4" toJunction="4way_23"/>
<trip id="368" depart="1051.4128" fromJunction="4way_24" toJunction="4way_39"/>
<trip id="369" depart="1054.2699" fromJunction="4way_22" toJunction="4way_33"/>
<trip id="370" depart="1057.127" fromJunction="4way_36" toJunction="3way_44"/>
<trip id="371" depart="1059.9841" fromJunction="4way_29" toJunction="4way_19"/>
<trip id="372" depart="1062.8412" fromJunction="4way_39" toJunction="3way_45"/>
<trip id="373" depart="1065.6983" fromJunction="3way_1" toJunction="3way_28"/>
<trip id="374" depart="1068.5554" fromJunction="3way_43" toJunction="3way_46"/>
<trip id="375" depart="1071.4125" fromJunction="4way_8" toJunction="4way_32"/>
<trip id="376" depart="1074.2696" fromJunction="3way_35" toJunction="4way_8"/>
<trip id="377" depart="1077.1267" fromJunction="4way_26" toJunction="4way_39"/>