<routes xmlns:xsi="http://www.w3.org/2001/XMLSchema-instance" xsi:noNamespaceSchemaLocation="http://sumo.dlr.de/xsd/routes_file.xsd">
<trip id="0" depart="0.0" fromJunction="4way_12" toJunction="4way_26"/>
<trip id="1" depart="0.8333" fromJunction="4way_26" toJunction="4way_11"/>
<trip id="2" depart="1.6666" fromJunction="4way_27" toJunction="4way_17"/>
<trip id="3" depart="2.4999000000000002" fromJunction="4way_53" toJunction="4way_25"/>
<trip id="4" depart="3.3332" fromJunction="3way_8" toJunction="4way_38"/>
<trip id="5" depart="4.1665" fromJunction="4way_18" toJunction="4way_52"/>
<trip id="6" depart="4.9998000000000005" fromJunction="4way_22" toJunction="4way_42"/>
<trip id="7" depart="5.8331" fromJunction="3way_6" toJunction="3way_5"/>
<trip id="8" depart="6.6664" fromJunction="4way_21" toJunction="3way_2"/>
<trip id="9" depart="7.499700000000001" fromJunction="4way_45" toJunction="4way_44"/>
<trip id="10" depart="8.333" fromJunction="4way_52" toJunction="4way_46"/>
<trip id="11" depart="9.1663" fromJunction="4way_44" toJunction="4way_33"/>
<trip id="12" depart="9.999600000000001" fromJunction="4way_27" toJunction="3way_23"/>
<trip id="13" depart="10.8329" fromJunction="4way_30" toJunction="3way_31"/>
<trip id="14" depart="11.6662" fromJunction="4way_9" toJunction="4way_18"/>
<trip id="15" depart="12.499500000000001" fromJunction="4way_44" toJunction="3way_59"/>
<trip id="16" depart="13.3328" fromJunction="4way_42" toJunction="4way_33"/>
<trip id="17" depart="14.1661" fromJunction="4way_19" toJunction="3way_2"/>
<trip id="18" depart="14.999400000000001" fromJunction="4way_19" toJunction="4way_11"/>
<trip id="19" depart="15.8327" fromJunction="4way_43" toJunction="4way_30"/>
<trip id="20" depart="16.666" fromJunction="4way_25" toJunction="3way_24"/>
<trip id="21" depart="17.4993" fromJunction="3way_4" toJunction="4way_51"/>
<trip id="22" depart="18.3326" fromJunction="3way_23" toJunction="3way_62"/>
<trip id="23" depart="19.1659" fromJunction="3way_24" toJunction="3way_48"/>
<trip id="24" depart="19.999200000000002" fromJunction="4way_25" toJunction="4way_42"/>
<trip id="25" depart="20.8325" fromJunction="3way_15" toJunction="4way_54"/>
<trip id="26" depart="21.6658" fromJunction="3way_39" toJunction="3way_62"/>
<trip id="27" depart="22.499100000000002" fromJunction="3way_59" toJunction="4way_35"/>
<trip id="28" depart="23.3324" fromJunction="3way_60" toJunction="4way_33"/>
<trip id="29" depart="24.1657" fromJunction="3way_15" toJunction="3way_39"/>
<trip id="30" depart="24.999000000000002" fromJunction="3way_31" toJunction="4way_35"/>
<trip id="31" depart="25.8323" fromJunction="3way_16" toJunction="3way_55"/>
<trip id="32" depart="26.6656" fromJunction="3way_6" toJunction="4way_21"/>
<trip id="33" depart="27.498900000000003" fromJunction="3way_6" toJunction="4way_29"/>
<trip id="34" depart="28.3322" fromJunction="4way_41" toJunction="4way_46"/>
<trip id="35" depart="29.1655" fromJunction="4way_11" toJunction="4way_46"/>
<trip id="36" depart="29.998800000000003" fromJunction="3way_3" toJunction="4way_28"/>
<trip id="37" depart="30.8321" fromJunction="3way_23" toJunction="3way_58"/>
<trip id="38" depart="31.6654" fromJunction="3way_23" toJunction="3way_57"/>
<trip id="39" depart="32.4987" fromJunction="4way_9" toJunction="3way_40"/>
<trip id="40" depart="33.332" fromJunction="4way_51" toJunction="3way_4"/>
<trip id="41" depart="34.1653" fromJunction="3way_59" toJunction="4way_34"/>
<trip id="42" depart="34.9986" fromJunction="3way_6" toJunction="4way_18"/>
<trip id="43" depart="35.831900000000005" fromJunction="4way_22" toJunction="4way_42"/>
<trip id="44" depart="36.6652" fromJunction="4way_43" toJunction="3way_40"/>
<trip id="45" depart="37.4985" fromJunction="4way_12" toJunction="3way_23"/>
<trip id="46" depart="38.3318" fromJunction="3way_47" toJunction="3way_57"/>
<trip id="47" depart="39.1651" fromJunction="3way_2" toJunction="4way_50"/>
<trip id="48" depart="39.998400000000004" fromJunction="3way_1" toJunction="4way_21"/>
<trip id="49" depart="40.831700000000005" fromJunction="3way_58" toJunction="4way_43"/>
<trip id="50" depart="41.665" fromJunction="4way_38" toJunction="4way_28"/>
<trip id="51" depart="42.4983" fromJunction="4way_42" toJunction="3way_60"/>
<trip id="52" depart="43.3316" fromJunction="4way_42" toJunction="4way_50"/>
<trip id="53" depart="44.1649" fromJunction="4way_38" toJunction="3way_61"/>
<trip id="54" depart="44.998200000000004" fromJunction="4way_29" toJunction="4way_25"/>
<trip id="55" depart="45.831500000000005" fromJunction="3way_57" toJunction="4way_51"/>
<trip id="56" depart="46.6648" fromJunction="3way_8" toJunction="4way_13"/>
<trip id="57" depart="47.4981" fromJunction="4way_42" toJunction="4way_45"/>
<trip id="58" depart="48.3314" fromJunction="4way_51" toJunction="4way_45"/>
<trip id="59" depart="49.1647" fromJunction="4way_10" toJunction="4way_20"/>
<trip id="60" depart="49.998000000000005" fromJunction="4way_27" toJunction="4way_38"/>
<trip id="61" depart="50.831300000000006" fromJunction="4way_11" toJunction="4way_17"/>
<trip id="62" depart="51.6646" fromJunction="3way_48" toJunction="3way_2"/>
<trip id="63" depart="52.4979" fromJunction="3way_57" toJunction="4way_35"/>
<trip id="64" depart="53.3312" fromJunction="4way_17" toJunction="4way_19"/>
<trip id="65" depart="54.164500000000004" fromJunction="3way_57" toJunction="3way_31"/>
<trip id="66" depart="54.997800000000005" fromJunction="4way_50" toJunction="4way_42"/>
<trip id="67" depart="55.8311" fromJunction="4way_35" toJunction="4way_42"/>
<trip id="68" depart="56.6644" fromJunction="4way_17" toJunction="4way_35"/>
<trip id="69" depart="57.4977" fromJunction="3way_16" toJunction="4way_53"/>
<trip id="70" depart="58.331" fromJunction="4way_53" toJunction="4way_25"/>
<trip id="71" depart="59.164300000000004" fromJunction="4way_12" toJunction="4way_13"/>
<trip id="72" depart="59.997600000000006" fromJunction="4way_22" toJunction="3way_15"/>
<trip id="73" depart="60.8309" fromJunction="4way_54" toJunction="4way_12"/>
<trip id="74" depart="61.6642" fromJunction="4way_45" toJunction="3way_31"/>
<trip id="75" depart="62.4975" fromJunction="4way_11" toJunction="3way_39"/>
<trip id="76" depart="63.3308" fromJunction="4way_29" toJunction="3way_23"/>
<trip id="77" depart="64.1641" fromJunction="4way_42" toJunction="4way_13"/>
<trip id="78" depart="64.9974" fromJunction="3way_5" toJunction="4way_9"/>
<trip id="79" depart="65.83070000000001" fromJunction="4way_33" toJunction="4way_51"/>
<trip id="80" depart="66.664" fromJunction="4way_37" toJunction="4way_20"/>
<trip id="81" depart="67.49730000000001" fromJunction="4way_37" toJunction="4way_46"/>
<trip id="82" depart="68.3306" fromJunction="3way_24" toJunction="3way_1"/>
<trip id="83" depart="69.1639" fromJunction="3way_47" toJunction="4way_20"/>
<trip id="84" depart="69.9972" fromJunction="3way_4" toJunction="4way_18"/>
<trip id="85" depart="70.8305" fromJunction="3way_2" toJunction="3way_55"/>
<trip id="86" depart="71.66380000000001" fromJunction="3way_61" toJunction="4way_52"/>
<trip id="87" depart="72.4971" fromJunction="4way_22" toJunction="3way_32"/>
<trip id="88" depart="73.3304" fromJunction="3way_2" toJunction="4way_12"/>
<trip id="89" depart="74.1637" fromJunction="4way_19" toJunction="3way_39"/>
<trip id="90" depart="74.997" fromJunction="3way_60" toJunction="4way_42"/>
<trip id="91" depart="75.83030000000001" fromJunction="4way_11" toJunction="4way_30"/>
<trip id="92" depart="76.6636" fromJunction="4way_50" toJunction="4way_26"/>
<trip id="93" depart="77.49690000000001" fromJunction="3way_48" toJunction="4way_20"/>
<trip id="94" depart="78.3302" fromJunction="3way_62" toJunction="3way_8"/>
<trip id="95" depart="79.1635" fromJunction="4way_30" toJunction="3way_55"/>
<trip id="96" depart="79.99680000000001" fromJunction="4way_49" toJunction="4way_28"/>
<trip id="97" depart="80.8301" fromJunction="3way_59" toJunction="3way_61"/>
<trip id="98" depart="81.66340000000001" fromJunction="4way_25" toJunction="3way_4"/>
<trip id="99" depart="82.4967" fromJunction="4way_51" toJunction="3way_48"/>
<trip id="100" depart="83.33" fromJunction="3way_47" toJunction="3way_16"/>
<trip id="101" depart="84.1633" fromJunction="3way_5" toJunction="3way_2"/>
<trip id="102" depart="84.9966" fromJunction="4way_33" toJunction="4way_43"/>
<trip id="103" depart="85.82990000000001" fromJunction="4way_53" toJunction="4way_26"/>
<trip id="104" depart="86.6632" fromJunction="3way_61" toJunction="4way_54"/>
<trip id="105" depart="87.4965" fromJunction="3way_59" toJunction="4way_35"/>
<trip id="106" depart="88.3298" fromJunction="4way_36" toJunction="3way_2"/>
<trip id="107" depart="89.1631" fromJunction="3way_8" toJunction="3way_40"/>
<trip id="108" depart="89.99640000000001" fromJunction="4way_21" toJunction="4way_50"/>
<trip id="109" depart="90.8297" fromJunction="4way_45" toJunction="4way_19"/>
<trip id="110" depart="91.66300000000001" fromJunction="4way_52" toJunction="3way_58"/>
<trip id="111" depart="92.4963" fromJunction="4way_38" toJunction="3way_55"/>
<trip id="112" depart="93.3296" fromJunction="3way_62" toJunction="4way_51"/>
<trip id="113" depart="94.16290000000001" fromJunction="4way_20" toJunction="4way_30"/>
<trip id="114" depart="94.9962" fromJunction="3way_62" toJunction="3way_59"/>
<trip id="115" depart="95.82950000000001" fromJunction="3way_2" toJunction="4way_18"/>
<trip id="116" depart="96.6628" fromJunction="4way_17" toJunction="3way_62"/>
<trip id="117" depart="97.4961" fromJunction="4way_33" toJunction="3way_16"/>
<trip id="118" depart="98.3294" fromJunction="4way_50" toJunction="3way_58"/>
<trip id="119" depart="99.1627" fromJunction="3way_23" toJunction="4way_37"/>
<trip id="120" depart="99.99600000000001" fromJunction="3way_23" toJunction="4way_18"/>
<trip id="121" depart="100.8293" fromJunction="3way_8" toJunction="4way_20"/>
<trip id="122" depart="101.66260000000001" fromJunction="3way_47" toJunction="4way_34"/>
<trip id="123" depart="102.4959" fromJunction="4way_49" toJunction="3way_31"/>
<trip id="124" depart="103.3292" fromJunction="4way_30" toJunction="3way_24"/>
<trip id="125" depart="104.16250000000001" fromJunction="4way_28" toJunction="4way_36"/>
<trip id="126" depart="104.9958" fromJunction="3way_6" toJunction="4way_14"/>
<trip id="127" depart="105.82910000000001" fromJunction="4way_50" toJunction="4way_34"/>
<trip id="128" depart="106.6624" fromJunction="3way_57" toJunction="4way_38"/>
<trip id="129" depart="107.4957" fromJunction="3way_15" toJunction="3way_60"/>
<trip id="130" depart="108.32900000000001" fromJunction="4way_22" toJunction="3way_1"/>
<trip id="131" depart="109.1623" fromJunction="4way_52" toJunction="4way_43"/>
<trip id="132" depart="109.99560000000001" fromJunction="4way_50" toJunction="3way_58"/>
<trip id="133" depart="110.8289" fromJunction="4way_49" toJunction="3way_4"/>
<trip id="134" depart="111.6622" fromJunction="4way_45" toJunction="4way_46"/>
<trip id="135" depart="112.4955" fromJunction="4way_38" toJunction="3way_32"/>
<trip id="136" depart="113.3288" fromJunction="4way_30" toJunction="3way_61"/>
<trip id="137" depart="114.16210000000001" fromJunction="4way_52" toJunction="4way_30"/>
<trip id="138" depart="114.9954" fromJunction="4way_45" toJunction="4way_19"/>
<trip id="139" depart="115.82870000000001" fromJunction="4way_29" toJunction="3way_57"/>
<trip id="140" depart="116.662" fromJunction="3way_1" toJunction="4way_19"/>
<trip id="141" depart="117.4953" fromJunction="3way_31" toJunction="3way_32"/>
<trip id="142" depart="118.32860000000001" fromJunction="4way_41" toJunction="4way_46"/>
<trip id="143" depart="119.1619" fromJunction="4way_27" toJunction="4way_49"/>
<trip id="144" depart="119.99520000000001" fromJunction="3way_31" toJunction="3way_16"/>
<trip id="145" depart="120.8285" fromJunction="3way_55" toJunction="4way_21"/>
<trip id="146" depart="121.6618" fromJunction="3way_61" toJunction="4way_10"/>
<trip id="147" depart="122.49510000000001" fromJunction="4way_37" toJunction="3way_6"/>
<trip id="148" depart="123.3284" fromJunction="4way_38" toJunction="4way_46"/>
<trip id="149" depart="124.16170000000001" fromJunction="4way_44" toJunction="4way_14"/>
<trip id="150" depart="124.995" fromJunction="3way_5" toJunction="3way_40"/>
<trip id="151" depart="125.82830000000001" fromJunction="3way_61" toJunction="4way_9"/>
<trip id="152" depart="126.6616" fromJunction="3way_4" toJunction="3way_23"/>
<trip id="153" depart="127.4949" fromJunction="3way_1" toJunction="4way_20"/>
<trip id="154" depart="128.3282" fromJunction="3way_31" toJunction="4way_44"/>
<trip id="155" depart="129.16150000000002" fromJunction="3way_6" toJunction="3way_5"/>
<trip id="156" depart="129.9948" fromJunction="3way_60" toJunction="4way_43"/>
<trip id="157" depart="130.8281" fromJunction="4way_34" toJunction="4way_17"/>
<trip id="158" depart="131.66140000000001" fromJunction="4way_20" toJunction="4way_37"/>
<trip id="159" depart="132.4947" fromJunction="3way_23" toJunction="3way_58"/>
<trip id="160" depart="133.328" fromJunction="3way_48" toJunction="3way_4"/>
<trip id="161" depart="134.1613" fromJunction="4way_33" toJunction="3way_59"/>
<trip id="162" depart="134.99460000000002" fromJunction="4way_51" toJunction="4way_43"/>
<trip id="163" depart="135.8279" fromJunction="3way_16" toJunction="3way_57"/>
<trip id="164" depart="136.6612" fromJunction="4way_52" toJunction="3way_47"/>
<trip id="165" depart="137.49450000000002" fromJunction="4way_51" toJunction="3way_4"/>
<trip id="166" depart="138.3278" fromJunction="3way_16" toJunction="3way_59"/>
<trip id="167" depart="139.1611" fromJunction="3way_58" toJunction="4way_50"/>
<trip id="168" depart="139.9944" fromJunction="3way_55" toJunction="3way_16"/>
<trip id="169" depart="140.8277" fromJunction="3way_3" toJunction="4way_33"/>
<trip id="170" depart="141.661" fromJunction="3way_5" toJunction="4way_52"/>
<trip id="171" depart="142.4943" fromJunction="3way_48" toJunction="4way_18"/>
<trip id="172" depart="143.32760000000002" fromJunction="4way_38" toJunction="4way_42"/>
<trip id="173" depart="144.1609" fromJunction="3way_3" toJunction="4way_27"/>
<trip id="174" depart="144.9942" fromJunction="4way_10" toJunction="4way_17"/>
<trip id="175" depart="145.82750000000001" fromJunction="4way_43" toJunction="4way_26"/>
<trip id="176" depart="146.6608" fromJunction="3way_23" toJunction="3way_58"/>
<trip id="177" depart="147.4941" fromJunction="4way_38" toJunction="3way_8"/>
<trip id="178" depart="148.3274" fromJunction="4way_14" toJunction="3way_55"/>
<trip id="179" depart="149.16070000000002" fromJunction="4way_33" toJunction="4way_26"/>
<trip id="180" depart="149.994" fromJunction="4way_33" toJunction="4way_45"/>
<trip id="181" depart="150.8273" fromJunction="3way_8" toJunction="4way_20"/>
<trip id="182" depart="151.66060000000002" fromJunction="4way_51" toJunction="4way_14"/>
<trip id="183" depart="152.4939" fromJunction="3way_40" toJunction="4way_51"/>
<trip id="184" depart="153.3272" fromJunction="4way_27" toJunction="4way_36"/>
<trip id="185" depart="154.1605" fromJunction="3way_39" toJunction="3way_60"/>
<trip id="186" depart="154.99380000000002" fromJunction="4way_38" toJunction="4way_52"/>
<trip id="187" depart="155.8271" fromJunction="4way_50" toJunction="4way_33"/>
<trip id="188" depart="156.6604" fromJunction="4way_33" toJunction="4way_37"/>
<trip id="189" depart="157.49370000000002" fromJunction="4way_42" toJunction="4way_38"/>
<trip id="190" depart="158.327" fromJunction="4way_14" toJunction="4way_21"/>
<trip id="191" depart="159.1603" fromJunction="3way_39" toJunction="4way_13"/>
<trip id="192" depart="159.99360000000001" fromJunction="3way_8" toJunction="4way_19"/>
<trip id="193" depart="160.8269" fromJunction="4way_17" toJunction="3way_4"/>
<trip id="194" depart="161.6602" fromJunction="4way_29" toJunction="3way_59"/>
<trip id="195" depart="162.4935" fromJunction="4way_38" toJunction="3way_2"/>
<trip id="196" depart="163.32680000000002" fromJunction="3way_55" toJunction="3way_1"/>
<trip id="197" depart="164.1601" fromJunction="4way_22" toJunction="4way_9"/>
<trip id="198" depart="164.9934" fromJunction="4way_30" toJunction="3way_6"/>
<trip id="199" depart="165.82670000000002" fromJunction="4way_33" toJunction="4way_45"/>
<trip id="200" depart="166.66" fromJunction="3way_61" toJunction="3way_40"/>
<trip id="201" depart="167.4933" fromJunction="3way_2" toJunction="4way_11"/>
<trip id="202" depart="168.3266" fromJunction="4way_17" toJunction="3way_1"/>
<trip id="203" depart="169.15990000000002" fromJunction="3way_59" toJunction="3way_5"/>
<trip id="204" depart="169.9932" fromJunction="3way_59" toJunction="3way_61"/>
<trip id="205" depart="170.8265" fromJunction="3way_1" toJunction="3way_23"/>
<trip id="206" depart="171.65980000000002" fromJunction="4way_19" toJunction="3way_15"/>
<trip id="207" depart="172.4931" fromJunction="4way_54" toJunction="4way_46"/>
<trip id="208" depart="173.3264" fromJunction="3way_39" toJunction="4way_9"/>
<trip id="209" depart="174.15970000000002" fromJunction="4way_49" toJunction="4way_27"/>
<trip id="210" depart="174.993" fromJunction="3way_4" toJunction="4way_54"/>
<trip id="211" depart="175.8263" fromJunction="3way_57" toJunction="4way_44"/>
<trip id="212" depart="176.6596" fromJunction="4way_35" toJunction="3way_60"/>
<trip id="213" depart="177.49290000000002" fromJunction="4way_35" toJunction="3way_60"/>
<trip id="214" depart="178.3262" fromJunction="4way_17" toJunction="4way_18"/>
<trip id="215" depart="179.1595" fromJunction="3way_57" toJunction="4way_34"/>
<trip id="216" depart="179.99280000000002" fromJunction="4way_9" toJunction="4way_12"/>
<trip id="217" depart="180.8261" fromJunction="4way_21" toJunction="3way_24"/>
<trip id="218" depart="181.6594" fromJunction="3way_3" toJunction="4way_22"/>
<trip id="219" depart="182.4927" fromJunction="3way_32" toJunction="3way_61"/>
<trip id="220" depart="183.32600000000002" fromJunction="4way_54" toJunction="4way_13"/>
<trip id="221" depart="184.1593" fromJunction="4way_14" toJunction="4way_46"/>
<trip id="222" depart="184.9926" fromJunction="4way_54" toJunction="3way_57"/>
<trip id="223" depart="185.82590000000002" fromJunction="3way_15" toJunction="3way_60"/>
<trip id="224" depart="186.6592" fromJunction="3way_60" toJunction="4way_38"/>
<trip id="225" depart="187.4925" fromJunction="3way_4" toJunction="4way_51"/>
<trip id="226" depart="188.32580000000002" fromJunction="4way_45" toJunction="4way_20"/>
<trip id="227" depart="189.1591" fromJunction="3way_16" toJunction="3way_58"/>
<trip id="228" depart="189.9924" fromJunction="4way_28" toJunction="3way_16"/>
<trip id="229" depart="190.8257" fromJunction="3way_47" toJunction="3way_60"/>
<trip id="230" depart="191.65900000000002" fromJunction="3way_48" toJunction="4way_25"/>
<trip id="231" depart="192.4923" fromJunction="3way_60" toJunction="4way_29"/>
<trip id="232" depart="193.3256" fromJunction="4way_30" toJunction="4way_10"/>
<trip id="233" depart="194.15890000000002" fromJunction="4way_45" toJunction="4way_27"/>
<trip id="234" depart="194.9922" fromJunction="4way_36" toJunction="4way_30"/>
<trip id="235" depart="195.8255" fromJunction="4way_46" toJunction="4way_51"/>
<trip id="236" depart="196.6588" fromJunction="4way_33" toJunction="4way_54"/>
<trip id="237" depart="197.49210000000002" fromJunction="3way_57" toJunction="3way_5"/>
<trip id="238" depart="198.3254" fromJunction="4way_17" toJunction="3way_39"/>
<trip id="239" depart="199.1587" fromJunction="4way_11" toJunction="3way_23"/>
<trip id="240" depart="199.99200000000002" fromJunction="4way_53" toJunction="3way_16"/>
<trip id="241" depart="200.8253" fromJunction="4way_26" toJunction="4way_46"/>
<trip id="242" depart="201.6586" fromJunction="4way_50" toJunction="3way_58"/>
<trip id="243" depart="202.49190000000002" fromJunction="4way_9" toJunction="4way_53"/>
<trip id="244" depart="203.32520000000002" fromJunction="3way_58" toJunction="4way_34"/>
<trip id="245" depart="204.1585" fromJunction="4way_9" toJunction="4way_33"/>
<trip id="246" depart="204.9918" fromJunction="4way_10" toJunction="3way_60"/>
<trip id="247" depart="205.82510000000002" fromJunction="3way_16" toJunction="3way_48"/>
<trip id="248" depart="206.6584" fromJunction="4way_36" toJunction="4way_18"/>
<trip id="249" depart="207.4917" fromJunction="4way_22" toJunction="3way_32"/>
<trip id="250" depart="208.32500000000002" fromJunction="3way_3" toJunction="4way_37"/>
<trip id="251" depart="209.1583" fromJunction="4way_25" toJunction="3way_59"/>
<trip id="252" depart="209.9916" fromJunction="3way_32" toJunction="3way_15"/>
<trip id="253" depart="210.8249" fromJunction="4way_43" toJunction="4way_28"/>
<trip id="254" depart="211.65820000000002" fromJunction="4way_12" toJunction="4way_19"/>
<trip id="255" depart="212.4915" fromJunction="3way_32" toJunction="3way_62"/>
<trip id="256" depart="213.3248" fromJunction="4way_45" toJunction="4way_43"/>
<trip id="257" depart="214.15810000000002" fromJunction="3way_58" toJunction="4way_26"/>
<trip id="258" depart="214.9914" fromJunction="4way_12" toJunction="3way_2"/>
<trip id="259" depart="215.8247" fromJunction="3way_16" toJunction="3way_1"/>
<trip id="260" depart="216.65800000000002" fromJunction="4way_22" toJunction="4way_18"/>
<trip id="261" depart="217.49130000000002" fromJunction="4way_9" toJunction="3way_6"/>
<trip id="262" depart="218.3246" fromJunction="3way_32" toJunction="3way_2"/>
<trip id="263" depart="219.1579" fromJunction="3way_58" toJunction="4way_19"/>
<trip id="264" depart="219.99120000000002" fromJunction="3way_15" toJunction="3way_62"/>
<trip id="265" depart="220.8245" fromJunction="4way_51" toJunction="4way_42"/>
<trip id="266" depart="221.6578" fromJunction="4way_30" toJunction="4way_43"/>
<trip id="267" depart="222.49110000000002" fromJunction="4way_27" toJunction="3way_1"/>
<trip id="268" depart="223.3244" fromJunction="4way_50" toJunction="4way_11"/>
<trip id="269" depart="224.1577" fromJunction="3way_2" toJunction="4way_38"/>
<trip id="270" depart="224.991" fromJunction="4way_13" toJunction="4way_51"/>
<trip id="271" depart="225.82430000000002" fromJunction="3way_32" toJunction="4way_10"/>
<trip id="272" depart="226.6576" fromJunction="3way_6" toJunction="4way_52"/>
<trip id="273" depart="227.4909" fromJunction="4way_18" toJunction="4way_25"/>
<trip id="274" depart="228.32420000000002" fromJunction="3way_6" toJunction="4way_51"/>
<trip id="275" depart="229.1575" fromJunction="4way_9" toJunction="3way_61"/>
<trip id="276" depart="229.9908" fromJunction="4way_53" toJunction="4way_19"/>
<trip id="277" depart="230.82410000000002" fromJunction="3way_31" toJunction="4way_19"/>
<trip id="278" depart="231.65740000000002" fromJunction="4way_45" toJunction="4way_46"/>
<trip id="279" depart="232.4907" fromJunction="4way_22" toJunction="4way_10"/>
<trip id="280" depart="233.324" fromJunction="4way_22" toJunction="4way_26"/>
<trip id="281" depart="234.15730000000002" fromJunction="4way_46" toJunction="4way_21"/>
<trip id="282" depart="234.9906" fromJunction="3way_3" toJunction="4way_22"/>
<trip id="283" depart="235.8239" fromJunction="3way_8" toJunction="3way_47"/>
<trip id="284" depart="236.65720000000002" fromJunction="3way_48" toJunction="4way_38"/>
<trip id="285" depart="237.49050000000003" fromJunction="4way_53" toJunction="3way_39"/>
<trip id="286" depart="238.3238" fromJunction="4way_14" toJunction="4way_25"/>
<trip id="287" depart="239.1571" fromJunction="4way_35" toJunction="3way_39"/>
<trip id="288" depart="239.99040000000002" fromJunction="3way_5" toJunction="4way_25"/>
<trip id="289" depart="240.8237" fromJunction="3way_60" toJunction="4way_51"/>
<trip id="290" depart="241.657" fromJunction="3way_4" toJunction="3way_3"/>
<trip id="291" depart="242.49030000000002" fromJunction="4way_14" toJunction="3way_4"/>
<trip id="292" depart="243.3236" fromJunction="4way_53" toJunction="4way_28"/>
<trip id="293" depart="244.1569" fromJunction="4way_18" toJunction="4way_43"/>
<trip id="294" depart="244.99020000000002" fromJunction="4way_54" toJunction="3way_48"/>
<trip id="295" depart="245.82350000000002" fromJunction="4way_41" toJunction="3way_24"/>
<trip id="296" depart="246.6568" fromJunction="4way_46" toJunction="3way_16"/>
<trip id="297" depart="247.4901" fromJunction="3way_40" toJunction="3way_47"/>
<trip id="298" depart="248.32340000000002" fromJunction="3way_4" toJunction="4way_43"/>
<trip id="299" depart="249.1567" fromJunction="4way_41" toJunction="4way_11"/>
<trip id="300" depart="249.99" fromJunction="3way_60" toJunction="3way_57"/>
<trip id="301" depart="250.82330000000002" fromJunction="3way_16" toJunction="4way_10"/>
<trip id="302" depart="251.65660000000003" fromJunction="3way_32" toJunction="4way_33"/>
<trip id="303" depart="252.4899" fromJunction="3way_31" toJunction="4way_46"/>
<trip id="304" depart="253.3232" fromJunction="3way_32" toJunction="3way_6"/>
<trip id="305" depart="254.15650000000002" fromJunction="4way_35" toJunction="4way_50"/>
<trip id="306" depart="254.9898" fromJunction="4way_54" toJunction="3way_8"/>
<trip id="307" depart="255.8231" fromJunction="4way_20" toJunction="3way_24"/>
<trip id="308" depart="256.6564" fromJunction="4way_13" toJunction="4way_27"/>
<trip id="309" depart="257.4897" fromJunction="4way_53" toJunction="4way_46"/>
<trip id="310" depart="258.32300000000004" fromJunction="4way_51" toJunction="4way_36"/>
<trip id="311" depart="259.1563" fromJunction="3way_31" toJunction="3way_32"/>
<trip id="312" depart="259.9896" fromJunction="3way_60" toJunction="3way_4"/>
<trip id="313" depart="260.8229" fromJunction="4way_18" toJunction="4way_17"/>
<trip id="314" depart="261.6562" fromJunction="4way_38" toJunction="4way_44"/>
<trip id="315" depart="262.4895" fromJunction="3way_15" toJunction="3way_23"/>
<trip id="316" depart="263.32280000000003" fromJunction="4way_28" toJunction="4way_50"/>
<trip id="317" depart="264.15610000000004" fromJunction="4way_30" toJunction="4way_29"/>
<trip id="318" depart="264.9894" fromJunction="3way_8" toJunction="4way_54"/>
<trip id="319" depart="265.8227" fromJunction="3way_31" toJunction="3way_16"/>
<trip id="320" depart="266.656" fromJunction="4way_35" toJunction="4way_51"/>
<trip id="321" depart="267.4893" fromJunction="3way_6" toJunction="4way_37"/>
<trip id="322" depart="268.3226" fromJunction="4way_42" toJunction="4way_49"/>
<trip id="323" depart="269.15590000000003" fromJunction="3way_47" toJunction="3way_60"/>
<trip id="324" depart="269.98920000000004" fromJunction="3way_4" toJunction="4way_37"/>
<trip id="325" depart="270.8225" fromJunction="3way_15" toJunction="4way_41"/>
<trip id="326" depart="271.6558" fromJunction="4way_46" toJunction="4way_33"/>
<trip id="327" depart="272.4891" fromJunction="4way_37" toJunction="4way_17"/>
<trip id="328" depart="273.3224" fromJunction="3way_58" toJunction="3way_23"/>
<trip id="329" depart="274.1557" fromJunction="3way_8" toJunction="4way_9"/>
<trip id="330" depart="274.98900000000003" fromJunction="3way_32" toJunction="4way_43"/>
<trip id="331" depart="275.82230000000004" fromJunction="4way_27" toJunction="4way_12"/>
<trip id="332" depart="276.6556" fromJunction="4way_17" toJunction="3way_8"/>
<trip id="333" depart="277.4889" fromJunction="3way_5" toJunction="4way_11"/>
<trip id="334" depart="278.3222" fromJunction="4way_35" toJunction="4way_21"/>
<trip id="335" depart="279.1555" fromJunction="4way_26" toJunction="4way_20"/>
<trip id="336" depart="279.9888" fromJunction="4way_9" toJunction="3way_15"/>
<trip id="337" depart="280.82210000000003" fromJunction="3way_40" toJunction="4way_9"/>
<trip id="338" depart="281.6554" fromJunction="4way_28" toJunction="3way_2"/>
<trip id="339" depart="282.4887" fromJunction="4way_11" toJunction="3way_15"/>
<trip id="340" depart="283.322" fromJunction="4way_27" toJunction="4way_12"/>
<trip id="341" depart="284.1553" fromJunction="3way_15" toJunction="4way_38"/>
<trip id="342" depart="284.9886" fromJunction="3way_2" toJunction="4way_45"/>
<trip id="343" depart="285.8219" fromJunction="4way_9" toJunction="4way_26"/>
<trip id="344" depart="286.65520000000004" fromJunction="3way_24" toJunction="4way_18"/>
<trip id="345" depart="287.4885" fromJunction="3way_2" toJunction="3way_55"/>
<trip id="346" depart="288.3218" fromJunction="4way_29" toJunction="4way_18"/>
<trip id="347" depart="289.1551" fromJunction="3way_61" toJunction="3way_16"/>
<trip id="348" depart="289.9884" fromJunction="3way_6" toJunction="3way_5"/>
<trip id="349" depart="290.8217" fromJunction="3way_15" toJunction="3way_61"/>
<trip id="350" depart="291.65500000000003" fromJunction="3way_4" toJunction="3way_59"/>
<trip id="351" depart="292.48830000000004" fromJunction="4way_37" toJunction="3way_4"/>
<trip id="352" depart="293.3216" fromJunction="4way_34" toJunction="3way_39"/>
<trip id="353" depart="294.1549" fromJunction="4way_33" toJunction="4way_44"/>
<trip id="354" depart="294.9882" fromJunction="3way_55" toJunction="3way_39"/>
<trip id="355" depart="295.8215" fromJunction="4way_18" toJunction="4way_17"/>
<trip id="356" depart="296.6548" fromJunction="4way_44" toJunction="3way_32"/>
<trip id="357" depart="297.48810000000003" fromJunction="4way_22" toJunction="4way_36"/>
<trip id="358" depart="298.32140000000004" fromJunction="4way_53" toJunction="3way_2"/>
<trip id="359" depart="299.1547" fromJunction="4way_45" toJunction="3way_8"/>
<trip id="360" depart="299.988" fromJunction="4way_54" toJunction="4way_51"/>
<trip id="361" depart="300.8213" fromJunction="3way_24" toJunction="4way_36"/>
<trip id="362" depart="301.6546" fromJunction="3way_16" toJunction="4way_10"/>
<trip id="363" depart="302.4879" fromJunction="3way_59" toJunction="3way_24"/>
<trip id="364" depart="303.32120000000003" fromJunction="4way_43" toJunction="4way_49"/>
<trip id="365" depart="304.15450000000004" fromJunction="4way_18" toJunction="3way_58"/>
<trip id="366" depart="304.9878" fromJunction="3way_39" toJunction="3way_23"/>
<trip id="367" depart="305.8211" fromJunction="4way_46" toJunction="3way_3"/>