<routes xmlns:xsi="http://www.w3.org/2001/XMLSchema-instance" xsi:noNamespaceSchemaLocation="http://sumo.dlr.de/xsd/routes_file.xsd">
<trip id="0" depart="0.0" fromJunction="4way_55" toJunction="4way_53"/>
<trip id="1" depart="0.45" fromJunction="4way_53" toJunction="4way_24"/>
<trip id="2" depart="0.9" fromJunction="4way_74" toJunction="4way_12"/>
<trip id="3" depart="1.35" fromJunction="4way_67" toJunction="4way_32"/>
<trip id="4" depart="1.8" fromJunction="4way_51" toJunction="4way_58"/>
<trip id="5" depart="2.25" fromJunction="4way_33" toJunction="4way_56"/>
<trip id="6" depart="2.7" fromJunction="4way_18" toJunction="4way_73"/>
<trip id="7" depart="3.15" fromJunction="3way_19" toJunction="3way_7"/>
<trip id="8" depart="3.6" fromJunction="4way_86" toJunction="3way_2"/>
<trip id="9" depart="4.05" fromJunction="4way_47" toJunction="4way_36"/>
<trip id="10" depart="4.5" fromJunction="4way_56" toJunction="4way_68"/>
<trip id="11" depart="4.95" fromJunction="4way_36" toJunction="4way_52"/>
<trip id="12" depart="5.4" fromJunction="4way_64" toJunction="3way_49"/>
<trip id="13" depart="5.8500000000000005" fromJunction="4way_38" toJunction="3way_69"/>
<trip id="14" depart="6.3" fromJunction="4way_81" toJunction="4way_33"/>
<trip id="15" depart="6.75" fromJunction="4way_36" toJunction="3way_70"/>
<trip id="16" depart="7.2" fromJunction="4way_73" toJunction="4way_42"/>
<trip id="17" depart="7.65" fromJunction="4way_44" toJunction="3way_2"/>
<trip id="18" depart="8.1" fromJunction="4way_44" toJunction="4way_34"/>
<trip id="19" depart="8.55" fromJunction="4way_25" toJunction="4way_38"/>
<trip id="20" depart="9.0" fromJunction="4way_22" toJunction="4way_31"/>
<trip id="21" depart="9.450000000000001" fromJunction="3way_6" toJunction="4way_35"/>
<trip id="22" depart="9.9" fromJunction="3way_59" toJunction="3way_94"/>
<trip id="23" depart="10.35" fromJunction="4way_31" toJunction="3way_20"/>
<trip id="24" depart="10.8" fromJunction="4way_32" toJunction="4way_73"/>
<trip id="25" depart="11.25" fromJunction="3way_29" toJunction="4way_78"/>
<trip id="26" depart="11.700000000000001" fromJunction="3way_89" toJunction="3way_94"/>
<trip id="27" depart="12.15" fromJunction="3way_80" toJunction="4way_74"/>
<trip id="28" depart="12.6" fromJunction="3way_91" toJunction="4way_52"/>
<trip id="29" depart="13.05" fromJunction="3way_39" toJunction="3way_89"/>
<trip id="30" depart="13.5" fromJunction="3way_69" toJunction="4way_84"/>
<trip id="31" depart="13.950000000000001" fromJunction="4way_41" toJunction="3way_96"/>
<trip id="32" depart="14.4" fromJunction="3way_29" toJunction="4way_76"/>
<trip id="33" depart="14.85" fromJunction="3way_29" toJunction="4way_17"/>
<trip id="34" depart="15.3" fromJunction="4way_52" toJunction="4way_68"/>
<trip id="35" depart="15.75" fromJunction="4way_34" toJunction="4way_68"/>
<trip id="36" depart="16.2" fromJunction="3way_4" toJunction="4way_75"/>
<trip id="37" depart="16.650000000000002" fromJunction="3way_49" toJunction="3way_50"/>
<trip id="38" depart="17.1" fromJunction="3way_49" toJunction="3way_40"/>
<trip id="39" depart="17.55" fromJunction="4way_81" toJunction="3way_20"/>
<trip id="40" depart="18.0" fromJunction="4way_35" toJunction="3way_7"/>
<trip id="41" depart="18.45" fromJunction="3way_70" toJunction="4way_73"/>
<trip id="42" depart="18.900000000000002" fromJunction="3way_29" toJunction="4way_33"/>
<trip id="43" depart="19.35" fromJunction="4way_28" toJunction="4way_83"/>
<trip id="44" depart="19.8" fromJunction="4way_15" toJunction="3way_20"/>
<trip id="45" depart="20.25" fromJunction="4way_55" toJunction="3way_59"/>
<trip id="46" depart="20.7" fromJunction="3way_97" toJunction="3way_50"/>
<trip id="47" depart="21.150000000000002" fromJunction="3way_2" toJunction="4way_14"/>
<trip id="48" depart="21.6" fromJunction="3way_1" toJunction="4way_86"/>
<trip id="49" depart="22.05" fromJunction="3way_70" toJunction="4way_25"/>
<trip id="50" depart="22.5" fromJunction="4way_58" toJunction="4way_75"/>
<trip id="51" depart="22.95" fromJunction="4way_83" toJunction="3way_91"/>
<trip id="52" depart="23.400000000000002" fromJunction="4way_73" toJunction="4way_14"/>
<trip id="53" depart="23.85" fromJunction="4way_48" toJunction="3way_93"/>
<trip id="54" depart="24.3" fromJunction="4way_27" toJunction="4way_32"/>
<trip id="55" depart="24.75" fromJunction="3way_40" toJunction="4way_45"/>
<trip id="56" depart="25.2" fromJunction="4way_71" toJunction="4way_76"/>
<trip id="57" depart="25.650000000000002" fromJunction="4way_83" toJunction="4way_57"/>
<trip id="58" depart="26.1" fromJunction="4way_35" toJunction="4way_57"/>
<trip id="59" depart="26.55" fromJunction="4way_13" toJunction="4way_65"/>
<trip id="60" depart="27.0" fromJunction="4way_64" toJunction="4way_48"/>
<trip id="61" depart="27.45" fromJunction="4way_34" toJunction="4way_12"/>
<trip id="62" depart="27.900000000000002" fromJunction="3way_40" toJunction="3way_2"/>
<trip id="63" depart="28.35" fromJunction="3way_50" toJunction="4way_84"/>
<trip id="64" depart="28.8" fromJunction="4way_22" toJunction="4way_44"/>
<trip id="65" depart="29.25" fromJunction="3way_40" toJunction="3way_69"/>
<trip id="66" depart="29.7" fromJunction="4way_14" toJunction="4way_73"/>
<trip id="67" depart="30.150000000000002" fromJunction="4way_74" toJunction="4way_83"/>
<trip id="68" depart="30.6" fromJunction="4way_22" toJunction="4way_74"/>
<trip id="69" depart="31.05" fromJunction="4way_41" toJunction="4way_77"/>
<trip id="70" depart="31.5" fromJunction="4way_67" toJunction="4way_22"/>
<trip id="71" depart="31.95" fromJunction="4way_45" toJunction="4way_66"/>
<trip id="72" depart="32.4" fromJunction="4way_18" toJunction="3way_29"/>
<trip id="73" depart="32.85" fromJunction="4way_88" toJunction="4way_55"/>
<trip id="74" depart="33.300000000000004" fromJunction="4way_47" toJunction="3way_79"/>
<trip id="75" depart="33.75" fromJunction="4way_44" toJunction="3way_89"/>
<trip id="76" depart="34.2" fromJunction="4way_27" toJunction="3way_49"/>
<trip id="77" depart="34.65" fromJunction="4way_73" toJunction="4way_66"/>
<trip id="78" depart="35.1" fromJunction="3way_7" toJunction="4way_81"/>
<trip id="79" depart="35.550000000000004" fromJunction="4way_42" toJunction="4way_35"/>
<trip id="80" depart="36.0" fromJunction="4way_47" toJunction="4way_65"/>
<trip id="81" depart="36.45" fromJunction="4way_37" toJunction="4way_68"/>
<trip id="82" depart="36.9" fromJunction="4way_31" toJunction="3way_2"/>
<trip id="83" depart="37.35" fromJunction="3way_98" toJunction="4way_75"/>
<trip id="84" depart="37.800000000000004" fromJunction="3way_6" toJunction="4way_33"/>
<trip id="85" depart="38.25" fromJunction="3way_2" toJunction="3way_95"/>
<trip id="86" depart="38.7" fromJunction="3way_93" toJunction="4way_56"/>
<trip id="87" depart="39.15" fromJunction="4way_28" toJunction="4way_21"/>
<trip id="88" depart="39.6" fromJunction="3way_4" toJunction="4way_45"/>
<trip id="89" depart="40.050000000000004" fromJunction="4way_44" toJunction="3way_89"/>
<trip id="90" depart="40.5" fromJunction="3way_92" toJunction="4way_83"/>
<trip id="91" depart="40.95" fromJunction="4way_34" toJunction="4way_28"/>
<trip id="92" depart="41.4" fromJunction="4way_14" toJunction="4way_43"/>
<trip id="93" depart="41.85" fromJunction="3way_30" toJunction="4way_75"/>
<trip id="94" depart="42.300000000000004" fromJunction="3way_94" toJunction="4way_71"/>
<trip id="95" depart="42.75" fromJunction="4way_38" toJunction="3way_97"/>
<trip id="96" depart="43.2" fromJunction="4way_82" toJunction="4way_75"/>
<trip id="97" depart="43.65" fromJunction="3way_80" toJunction="3way_93"/>
<trip id="98" depart="44.1" fromJunction="4way_22" toJunction="3way_6"/>
<trip id="99" depart="44.550000000000004" fromJunction="4way_35" toJunction="3way_30"/>
<trip id="100" depart="45.0" fromJunction="3way_97" toJunction="4way_51"/>
<trip id="101" depart="45.45" fromJunction="3way_7" toJunction="3way_3"/>
<trip id="102" depart="45.9" fromJunction="4way_42" toJunction="4way_25"/>
<trip id="103" depart="46.35" fromJunction="4way_77" toJunction="4way_43"/>
<trip id="104" depart="46.800000000000004" fromJunction="3way_94" toJunction="4way_88"/>
<trip id="105" depart="47.25" fromJunction="3way_70" toJunction="4way_84"/>
<trip id="106" depart="47.7" fromJunction="4way_16" toJunction="3way_2"/>
<trip id="107" depart="48.15" fromJunction="4way_51" toJunction="3way_20"/>
<trip id="108" depart="48.6" fromJunction="4way_86" toJunction="4way_14"/>
<trip id="109" depart="49.050000000000004" fromJunction="4way_47" toJunction="4way_54"/>
<trip id="110" depart="49.5" fromJunction="4way_56" toJunction="3way_60"/>
<trip id="111" depart="49.95" fromJunction="4way_48" toJunction="3way_97"/>
<trip id="112" depart="50.4" fromJunction="3way_94" toJunction="4way_25"/>
<trip id="113" depart="50.85" fromJunction="4way_75" toJunction="4way_38"/>
<trip id="114" depart="51.300000000000004" fromJunction="3way_94" toJunction="3way_80"/>
<trip id="115" depart="51.75" fromJunction="3way_3" toJunction="4way_23"/>
<trip id="116" depart="52.2" fromJunction="4way_12" toJunction="3way_95"/>
<trip id="117" depart="52.65" fromJunction="4way_52" toJunction="4way_41"/>
<trip id="118" depart="53.1" fromJunction="4way_14" toJunction="3way_60"/>
<trip id="119" depart="53.550000000000004" fromJunction="3way_49" toJunction="4way_37"/>
<trip id="120" depart="54.0" fromJunction="3way_59" toJunction="4way_23"/>
<trip id="121" depart="54.45" fromJunction="4way_71" toJunction="4way_55"/>
<trip id="122" depart="54.9" fromJunction="3way_97" toJunction="4way_73"/>
<trip id="123" depart="55.35" fromJunction="4way_72" toJunction="3way_69"/>
<trip id="124" depart="55.800000000000004" fromJunction="4way_38" toJunction="4way_31"/>
<trip id="125" depart="56.25" fromJunction="4way_85" toJunction="4way_26"/>
<trip id="126" depart="56.7" fromJunction="3way_19" toJunction="4way_77"/>
<trip id="127" depart="57.15" fromJunction="4way_14" toJunction="4way_63"/>
<trip id="128" depart="57.6" fromJunction="3way_40" toJunction="4way_58"/>
<trip id="129" depart="58.050000000000004" fromJunction="3way_29" toJunction="3way_91"/>
<trip id="130" depart="58.5" fromJunction="4way_28" toJunction="3way_2"/>
<trip id="131" depart="58.95" fromJunction="4way_46" toJunction="4way_15"/>
<trip id="132" depart="59.4" fromJunction="4way_14" toJunction="3way_50"/>
<trip id="133" depart="59.85" fromJunction="4way_72" toJunction="3way_7"/>
<trip id="134" depart="60.300000000000004" fromJunction="4way_57" toJunction="4way_68"/>
<trip id="135" depart="60.75" fromJunction="4way_58" toJunction="4way_11"/>
<trip id="136" depart="61.2" fromJunction="4way_48" toJunction="3way_92"/>
<trip id="137" depart="61.65" fromJunction="4way_56" toJunction="4way_38"/>
<trip id="138" depart="62.1" fromJunction="4way_47" toJunction="4way_54"/>
<trip id="139" depart="62.550000000000004" fromJunction="4way_27" toJunction="3way_40"/>
<trip id="140" depart="63.0" fromJunction="3way_2" toJunction="4way_44"/>
<trip id="141" depart="63.45" fromJunction="3way_79" toJunction="4way_21"/>
<trip id="142" depart="63.9" fromJunction="4way_62" toJunction="4way_78"/>
<trip id="143" depart="64.35000000000001" fromJunction="4way_64" toJunction="4way_82"/>
<trip id="144" depart="64.8" fromJunction="3way_69" toJunction="4way_41"/>
<trip id="145" depart="65.25" fromJunction="3way_96" toJunction="4way_76"/>
<trip id="146" depart="65.7" fromJunction="3way_93" toJunction="4way_23"/>
<trip id="147" depart="66.15" fromJunction="4way_37" toJunction="3way_29"/>
<trip id="148" depart="66.60000000000001" fromJunction="4way_58" toJunction="4way_68"/>
<trip id="149" depart="67.05" fromJunction="4way_36" toJunction="4way_87"/>
<trip id="150" depart="67.5" fromJunction="3way_8" toJunction="3way_10"/>
<trip id="151" depart="67.95" fromJunction="3way_92" toJunction="4way_81"/>
<trip id="152" depart="68.4" fromJunction="3way_6" toJunction="3way_59"/>
<trip id="153" depart="68.85000000000001" fromJunction="3way_2" toJunction="4way_65"/>
<trip id="154" depart="69.3" fromJunction="3way_79" toJunction="4way_26"/>
<trip id="155" depart="69.75" fromJunction="3way_19" toJunction="3way_8"/>
<trip id="156" depart="70.2" fromJunction="3way_91" toJunction="4way_15"/>
<trip id="157" depart="70.65" fromJunction="4way_63" toJunction="4way_12"/>
<trip id="158" depart="71.10000000000001" fromJunction="4way_65" toJunction="4way_37"/>
<trip id="159" depart="71.55" fromJunction="3way_59" toJunction="3way_70"/>
<trip id="160" depart="72.0" fromJunction="3way_40" toJunction="3way_6"/>
<trip id="161" depart="72.45" fromJunction="4way_42" toJunction="3way_70"/>
<trip id="162" depart="72.9" fromJunction="4way_35" toJunction="4way_25"/>
<trip id="163" depart="73.35000000000001" fromJunction="4way_51" toJunction="3way_50"/>
<trip id="164" depart="73.8" fromJunction="4way_46" toJunction="3way_97"/>
<trip id="165" depart="74.25" fromJunction="4way_35" toJunction="3way_6"/>
<trip id="166" depart="74.7" fromJunction="4way_41" toJunction="3way_80"/>
<trip id="167" depart="75.15" fromJunction="3way_60" toJunction="4way_14"/>
<trip id="168" depart="75.60000000000001" fromJunction="3way_96" toJunction="4way_41"/>
<trip id="169" depart="76.05" fromJunction="3way_5" toJunction="4way_52"/>
<trip id="170" depart="76.5" fromJunction="3way_8" toJunction="4way_56"/>
<trip id="171" depart="76.95" fromJunction="3way_30" toJunction="4way_23"/>
<trip id="172" depart="77.4" fromJunction="4way_58" toJunction="4way_83"/>
<trip id="173" depart="77.85000000000001" fromJunction="3way_4" toJunction="4way_64"/>
<trip id="174" depart="78.3" fromJunction="4way_13" toJunction="4way_22"/>
<trip id="175" depart="78.75" fromJunction="4way_25" toJunction="4way_43"/>
<trip id="176" depart="79.2" fromJunction="3way_59" toJunction="3way_60"/>
<trip id="177" depart="79.65" fromJunction="4way_48" toJunction="4way_61"/>
<trip id="178" depart="80.10000000000001" fromJunction="4way_77" toJunction="3way_97"/>
<trip id="179" depart="80.55" fromJunction="4way_42" toJunction="4way_53"/>
<trip id="180" depart="81.0" fromJunction="4way_52" toJunction="4way_57"/>
<trip id="181" depart="81.45" fromJunction="4way_71" toJunction="4way_65"/>
<trip id="182" depart="81.9" fromJunction="4way_35" toJunction="4way_77"/>
<trip id="183" depart="82.35000000000001" fromJunction="3way_10" toJunction="4way_45"/>
<trip id="184" depart="82.8" fromJunction="4way_64" toJunction="4way_16"/>
<trip id="185" depart="83.25" fromJunction="3way_89" toJunction="3way_91"/>
<trip id="186" depart="83.7" fromJunction="4way_58" toJunction="4way_56"/>
<trip id="187" depart="84.15" fromJunction="4way_14" toJunction="4way_42"/>
<trip id="188" depart="84.60000000000001" fromJunction="4way_42" toJunction="4way_37"/>
<trip id="189" depart="85.05" fromJunction="4way_83" toJunction="4way_48"/>
<trip id="190" depart="85.5" fromJunction="4way_87" toJunction="4way_76"/>
<trip id="191" depart="85.95" fromJunction="3way_89" toJunction="4way_76"/>
<trip id="192" depart="86.4" fromJunction="4way_71" toJunction="4way_54"/>
<trip id="193" depart="86.85000000000001" fromJunction="4way_12" toJunction="3way_7"/>
<trip id="194" depart="87.3" fromJunction="4way_27" toJunction="3way_80"/>
<trip id="195" depart="87.75" fromJunction="4way_58" toJunction="3way_4"/>
<trip id="196" depart="88.2" fromJunction="3way_97" toJunction="3way_2"/>
<trip id="197" depart="88.65" fromJunction="4way_28" toJunction="4way_71"/>
<trip id="198" depart="89.10000000000001" fromJunction="4way_38" toJunction="3way_29"/>
<trip id="199" depart="89.55" fromJunction="4way_42" toJunction="4way_47"/>
<trip id="200" depart="90.0" fromJunction="3way_92" toJunction="3way_10"/>
<trip id="201" depart="90.45" fromJunction="3way_4" toJunction="4way_34"/>
<trip id="202" depart="90.9" fromJunction="4way_22" toJunction="3way_2"/>
<trip id="203" depart="91.35000000000001" fromJunction="3way_80" toJunction="3way_7"/>
<trip id="204" depart="91.8" fromJunction="3way_80" toJunction="3way_93"/>
<trip id="205" depart="92.25" fromJunction="3way_2" toJunction="3way_59"/>
<trip id="206" depart="92.7" fromJunction="4way_44" toJunction="3way_49"/>
<trip id="207" depart="93.15" fromJunction="4way_88" toJunction="4way_68"/>
<trip id="208" depart="93.60000000000001" fromJunction="3way_89" toJunction="4way_81"/>
<trip id="209" depart="94.05" fromJunction="4way_82" toJunction="4way_64"/>
<trip id="210" depart="94.5" fromJunction="3way_7" toJunction="4way_78"/>
<trip id="211" depart="94.95" fromJunction="3way_50" toJunction="4way_46"/>
<trip id="212" depart="95.4" fromJunction="4way_84" toJunction="3way_91"/>
<trip id="213" depart="95.85000000000001" fromJunction="4way_84" toJunction="3way_91"/>
<trip id="214" depart="96.3" fromJunction="4way_12" toJunction="4way_23"/>
<trip id="215" depart="96.75" fromJunction="3way_50" toJunction="4way_63"/>
<trip id="216" depart="97.2" fromJunction="4way_81" toJunction="4way_45"/>
<trip id="217" depart="97.65" fromJunction="4way_86" toJunction="4way_31"/>
<trip id="218" depart="98.10000000000001" fromJunction="3way_5" toJunction="4way_18"/>
<trip id="219" depart="98.55" fromJunction="4way_21" toJunction="3way_92"/>
<trip id="220" depart="99.0" fromJunction="4way_78" toJunction="4way_76"/>
<trip id="221" depart="99.45" fromJunction="4way_77" toJunction="4way_68"/>
<trip id="222" depart="99.9" fromJunction="4way_88" toJunction="3way_40"/>
<trip id="223" depart="100.35000000000001" fromJunction="3way_39" toJunction="3way_91"/>
<trip id="224" depart="100.8" fromJunction="3way_92" toJunction="4way_48"/>
<trip id="225" depart="101.25" fromJunction="3way_6" toJunction="4way_35"/>
<trip id="226" depart="101.7" fromJunction="4way_57" toJunction="4way_75"/>
<trip id="227" depart="102.15" fromJunction="4way_51" toJunction="3way_60"/>
<trip id="228" depart="102.60000000000001" fromJunction="4way_85" toJunction="4way_41"/>
<trip id="229" depart="103.05" fromJunction="3way_98" toJunction="3way_92"/>
<trip id="230" depart="103.5" fromJunction="3way_30" toJunction="4way_42"/>
<trip id="231" depart="103.95" fromJunction="3way_92" toJunction="4way_17"/>
<trip id="232" depart="104.4" fromJunction="4way_38" toJunction="4way_13"/>
<trip id="233" depart="104.85000000000001" fromJunction="4way_47" toJunction="4way_54"/>
<trip id="234" depart="105.3" fromJunction="4way_16" toJunction="4way_38"/>
<trip id="235" depart="105.75" fromJunction="4way_58" toJunction="4way_45"/>
<trip id="236" depart="106.2" fromJunction="4way_42" toJunction="4way_88"/>
<trip id="237" depart="106.65" fromJunction="3way_40" toJunction="3way_7"/>
<trip id="238" depart="107.10000000000001" fromJunction="4way_12" toJunction="3way_79"/>
<trip id="239" depart="107.55" fromJunction="4way_24" toJunction="3way_59"/>
<trip id="240" depart="108.0" fromJunction="4way_67" toJunction="4way_51"/>
<trip id="241" depart="108.45" fromJunction="4way_53" toJunction="4way_58"/>
<trip id="242" depart="108.9" fromJunction="4way_14" toJunction="3way_60"/>
<trip id="243" depart="109.35000000000001" fromJunction="4way_81" toJunction="4way_77"/>
<trip id="244" depart="109.8" fromJunction="3way_60" toJunction="4way_53"/>
<trip id="245" depart="110.25" fromJunction="4way_71" toJunction="4way_42"/>
<trip id="246" depart="110.7" fromJunction="4way_13" toJunction="3way_91"/>
<trip id="247" depart="111.15" fromJunction="4way_41" toJunction="3way_30"/>
<trip id="248" depart="111.60000000000001" fromJunction="4way_16" toJunction="4way_33"/>
<trip id="249" depart="112.05" fromJunction="4way_18" toJunction="4way_11"/>
<trip id="250" depart="112.5" fromJunction="3way_5" toJunction="4way_37"/>
<trip id="251" depart="112.95" fromJunction="4way_32" toJunction="3way_80"/>
<trip id="252" depart="113.4" fromJunction="4way_21" toJunction="3way_39"/>
<trip id="253" depart="113.85000000000001" fromJunction="4way_25" toJunction="4way_85"/>
<trip id="254" depart="114.3" fromJunction="4way_55" toJunction="4way_44"/>
<trip id="255" depart="114.75" fromJunction="4way_11" toJunction="3way_95"/>
<trip id="256" depart="115.2" fromJunction="4way_57" toJunction="4way_15"/>
<trip id="257" depart="115.65" fromJunction="3way_50" toJunction="4way_53"/>
<trip id="258" depart="116.10000000000001" fromJunction="4way_55" toJunction="3way_3"/>
<trip id="259" depart="116.55" fromJunction="4way_41" toJunction="3way_1"/>
<trip id="260" depart="117.0" fromJunction="4way_18" toJunction="4way_33"/>
<trip id="261" depart="117.45" fromJunction="4way_71" toJunction="3way_19"/>
<trip id="262" depart="117.9" fromJunction="4way_11" toJunction="3way_3"/>
<trip id="263" depart="118.35000000000001" fromJunction="3way_60" toJunction="4way_44"/>
<trip id="264" depart="118.8" fromJunction="3way_49" toJunction="3way_94"/>
<trip id="265" depart="119.25" fromJunction="4way_35" toJunction="4way_83"/>
<trip id="266" depart="119.7" fromJunction="4way_48" toJunction="4way_15"/>
<trip id="267" depart="120.15" fromJunction="4way_74" toJunction="3way_1"/>
<trip id="268" depart="120.60000000000001" fromJunction="4way_14" toJunction="4way_24"/>
<trip id="269" depart="121.05" fromJunction="3way_2" toJunction="4way_58"/>
<trip id="270" depart="121.5" fromJunction="4way_76" toJunction="4way_35"/>
<trip id="271" depart="121.95" fromJunction="4way_11" toJunction="4way_13"/>
<trip id="272" depart="122.4" fromJunction="3way_29" toJunction="4way_46"/>
<trip id="273" depart="122.85000000000001" fromJunction="4way_23" toJunction="4way_32"/>
<trip id="274" depart="123.3" fromJunction="3way_19" toJunction="4way_35"/>
<trip id="275" depart="123.75" fromJunction="4way_81" toJunction="3way_93"/>
<trip id="276" depart="124.2" fromJunction="4way_67" toJunction="4way_44"/>
<trip id="277" depart="124.65" fromJunction="3way_59" toJunction="4way_44"/>
<trip id="278" depart="125.10000000000001" fromJunction="4way_47" toJunction="4way_78"/>
<trip id="279" depart="125.55" fromJunction="4way_18" toJunction="4way_13"/>
<trip id="280" depart="126.0" fromJunction="4way_18" toJunction="4way_43"/>
<trip id="281" depart="126.45" fromJunction="4way_58" toJunction="4way_86"/>
<trip id="282" depart="126.9" fromJunction="3way_4" toJunction="4way_18"/>
<trip id="283" depart="127.35000000000001" fromJunction="4way_61" toJunction="3way_98"/>
<trip id="284" depart="127.8" fromJunction="3way_40" toJunction="4way_48"/>
<trip id="285" depart="128.25" fromJunction="4way_67" toJunction="3way_89"/>
<trip id="286" depart="128.70000000000002" fromJunction="4way_87" toJunction="4way_32"/>
<trip id="287" depart="129.15" fromJunction="4way_84" toJunction="3way_89"/>
<trip id="288" depart="129.6" fromJunction="3way_8" toJunction="4way_32"/>
<trip id="289" depart="130.05" fromJunction="3way_91" toJunction="4way_35"/>
<trip id="290" depart="130.5" fromJunction="3way_6" toJunction="3way_4"/>
<trip id="291" depart="130.95000000000002" fromJunction="4way_87" toJunction="3way_6"/>
<trip id="292" depart="131.4" fromJunction="4way_77" toJunction="4way_85"/>
<trip id="293" depart="131.85" fromJunction="4way_33" toJunction="4way_15"/>
<trip id="294" depart="132.3" fromJunction="4way_88" toJunction="3way_30"/>
<trip id="295" depart="132.75" fromJunction="4way_62" toJunction="4way_31"/>
<trip id="296" depart="133.20000000000002" fromJunction="4way_78" toJunction="4way_51"/>
<trip id="297" depart="133.65" fromJunction="3way_10" toJunction="3way_98"/>
<trip id="298" depart="134.1" fromJunction="3way_7" toJunction="4way_25"/>
<trip id="299" depart="134.55" fromJunction="4way_62" toJunction="4way_34"/>
<trip id="300" depart="135.0" fromJunction="3way_92" toJunction="3way_50"/>
<trip id="301" depart="135.45000000000002" fromJunction="4way_41" toJunction="4way_23"/>
<trip id="302" depart="135.9" fromJunction="4way_11" toJunction="4way_42"/>
<trip id="303" depart="136.35" fromJunction="3way_59" toJunction="4way_68"/>
<trip id="304" depart="136.8" fromJunction="4way_11" toJunction="3way_29"/>
<trip id="305" depart="137.25" fromJunction="4way_84" toJunction="4way_14"/>
<trip id="306" depart="137.70000000000002" fromJunction="4way_88" toJunction="4way_71"/>
<trip id="307" depart="138.15" fromJunction="4way_65" toJunction="4way_21"/>
<trip id="308" depart="138.6" fromJunction="4way_76" toJunction="4way_64"/>
<trip id="309" depart="139.05" fromJunction="4way_67" toJunction="4way_68"/>
<trip id="310" depart="139.5" fromJunction="4way_45" toJunction="4way_26"/>
<trip id="311" depart="139.95000000000002" fromJunction="3way_79" toJunction="4way_11"/>
<trip id="312" depart="140.4" fromJunction="3way_91" toJunction="3way_7"/>
<trip id="313" depart="140.85" fromJunction="4way_33" toJunction="4way_22"/>
<trip id="314" depart="141.3" fromJunction="4way_58" toJunction="4way_36"/>
<trip id="315" depart="141.75" fromJunction="3way_39" toJunction="3way_49"/>
<trip id="316" depart="142.20000000000002" fromJunction="4way_85" toJunction="4way_14"/>
<trip id="317" depart="142.65" fromJunction="4way_28" toJunction="4way_27"/>
<trip id="318" depart="143.1" fromJunction="4way_71" toJunction="4way_78"/>
<trip id="319" depart="143.55" fromJunction="3way_79" toJunction="4way_51"/>
<trip id="320" depart="144.0" fromJunction="4way_84" toJunction="4way_25"/>
<trip id="321" depart="144.45000000000002" fromJunction="3way_29" toJunction="4way_37"/>
<trip id="322" depart="144.9" fromJunction="4way_83" toJunction="4way_82"/>
<trip id="323" depart="145.35" fromJunction="3way_98" toJunction="3way_91"/>
<trip id="324" depart="145.8" fromJunction="3way_6" toJunction="4way_37"/>
<trip id="325" depart="146.25" fromJunction="3way_49" toJunction="4way_62"/>
<trip id="326" depart="146.70000000000002" fromJunction="4way_78" toJunction="4way_42"/>
<trip id="327" depart="147.15" fromJunction="4way_37" toJunction="4way_12"/>
<trip id="328" depart="147.6" fromJunction="3way_60" toJunction="3way_49"/>
<trip id="329" depart="148.05" fromJunction="4way_21" toJunction="4way_15"/>
<trip id="330" depart="148.5" fromJunction="4way_64" toJunction="4way_55"/>
<trip id="331" depart="148.95000000000002" fromJunction="4way_22" toJunction="4way_71"/>
<trip id="332" depart="149.4" fromJunction="3way_7" toJunction="4way_34"/>
<trip id="333" depart="149.85" fromJunction="4way_74" toJunction="4way_76"/>
<trip id="334" depart="150.3" fromJunction="4way_43" toJunction="4way_65"/>
<trip id="335" depart="150.75" fromJunction="4way_71" toJunction="3way_39"/>
<trip id="336" depart="151.20000000000002" fromJunction="3way_20" toJunction="4way_71"/>
<trip id="337" depart="151.65" fromJunction="4way_75" toJunction="3way_3"/>
<trip id="338" depart="152.1" fromJunction="4way_34" toJunction="3way_39"/>
<trip id="339" depart="152.55" fromJunction="4way_54" toJunction="4way_45"/>
<trip id="340" depart="153.0" fromJunction="3way_29" toJunction="4way_58"/>
<trip id="341" depart="153.45000000000002" fromJunction="3way_3" toJunction="4way_47"/>
<trip id="342" depart="153.9" fromJunction="4way_71" toJunction="4way_43"/>
<trip id="343" depart="154.35" fromJunction="4way_41" toJunction="4way_33"/>
<trip id="344" depart="154.8" fromJunction="3way_2" toJunction="3way_96"/>
<trip id="345" depart="155.25" fromJunction="4way_17" toJunction="4way_23"/>
<trip id="346" depart="155.70000000000002" fromJunction="3way_93" toJunction="4way_41"/>
<trip id="347" depart="156.15" fromJunction="3way_19" toJunction="3way_8"/>
<trip id="348" depart="156.6" fromJunction="3way_29" toJunction="3way_93"/>
<trip id="349" depart="157.05" fromJunction="3way_7" toJunction="3way_70"/>
<trip id="350" depart="157.5" fromJunction="4way_37" toJunction="3way_7"/>
<trip id="351" depart="157.95000000000002" fromJunction="4way_63" toJunction="3way_89"/>
<trip id="352" depart="158.4" fromJunction="4way_42" toJunction="4way_36"/>
<trip id="353" depart="158.85" fromJunction="3way_95" toJunction="3way_79"/>
<trip id="354" depart="159.3" fromJunction="4way_33" toJunction="4way_22"/>
<trip id="355" depart="159.75" fromJunction="4way_46" toJunction="4way_21"/>
<trip id="356" depart="160.20000000000002" fromJunction="4way_28" toJunction="4way_16"/>
<trip id="357" depart="160.65" fromJunction="4way_67" toJunction="3way_3"/>
<trip id="358" depart="161.1" fromJunction="4way_57" toJunction="4way_61"/>
<trip id="359" depart="161.55" fromJunction="4way_78" toJunction="4way_35"/>
<trip id="360" depart="162.0" fromJunction="4way_31" toJunction="4way_16"/>
<trip id="361" depart="162.45000000000002" fromJunction="4way_51" toJunction="4way_13"/>
<trip id="362" depart="162.9" fromJunction="3way_70" toJunction="4way_41"/>
<trip id="363" depart="163.35" fromJunction="4way_25" toJunction="4way_82"/>
<trip id="364" depart="163.8" fromJunction="4way_33" toJunction="3way_60"/>
<trip id="365" depart="164.25" fromJunction="3way_89" toJunction="3way_49"/>
<trip id="366" depart="164.70000000000002" fromJunction="4way_68" toJunction="3way_5"/>
<trip id="367" depart="165.15" fromJunction="3way_97" toJunction="3way_1"/>
<trip id="368" depart="165.6" fromJunction="3way_8" toJunction="4way_34"/>
<trip id="369" depart="166.05" fromJunction="4way_65" toJunction="4way_57"/>
<trip id="370" depart="166.5" fromJunction="4way_13" toJunction="4way_58"/>
<trip id="371" depart="166.95000000000002" fromJunction="4way_53" toJunction="3way_40"/>
<trip id="372" depart="167.4" fromJunction="4way_23" toJunction="4way_28"/>
<trip id="373" depart="167.85" fromJunction="4way_57" toJunction="3way_70"/>
<trip id="374" depart="168.3" fromJunction="3way_1" toJunction="4way_41"/>
<trip id="375" depart="168.75" fromJunction="3way_20" toJunction="3way_91"/>
<trip id="376" depart="169.20000000000002" fromJunction="4way_52" toJunction="4way_37"/>
<trip id="377" depart="169.65" fromJunction="4way_11" toJunction="4way_32"/>
<trip id="378" depart="170.1" fromJunction="4way_38" toJunction="4way_57"/>
<trip id="379" depart="170.55" fromJunction="4way_51" toJunction="4way_88"/>
<trip id="380" depart="171.0" fromJunction="4way_56" toJunction="4way_58"/>
<trip id="381" depart="171.45000000000002" fromJunction="3way_91" toJunction="4way_15"/>
<trip id="382" depart="171.9" fromJunction="3way_89" toJunction="3way_94"/>