<routes xmlns:xsi="http://www.w3.org/2001/XMLSchema-instance" xsi:noNamespaceSchemaLocation="http://sumo.dlr.de/xsd/routes_file.xsd">
<trip id="0" depart="0.0" fromJunction="4way_E07" toJunction="4way_D04"/>
<trip id="1" depart="0.31" fromJunction="4way_D04" toJunction="4way_D08"/>
<trip id="2" depart="0.62" fromJunction="3way_E02" toJunction="4way_B09"/>
<trip id="3" depart="0.9299999999999999" fromJunction="4way_G02" toJunction="3way_C03"/>
<trip id="4" depart="1.24" fromJunction="4way_B06" toJunction="4way_G07"/>
<trip id="5" depart="1.55" fromJunction="4way_D03" toJunction="4way_F04"/>
<trip id="6" depart="1.8599999999999999" fromJunction="4way_G04" toJunction="3way_D05"/>
<trip id="7" depart="2.17" fromJunction="3way_B10" toJunction="3way_A09"/>
<trip id="8" depart="2.48" fromJunction="4way_F06" toJunction="3way_A05"/>
<trip id="9" depart="2.79" fromJunction="4way_F09" toJunction="4way_F03"/>
<trip id="10" depart="3.1" fromJunction="4way_F04" toJunction="4way_G08"/>
<trip id="11" depart="3.41" fromJunction="4way_F03" toJunction="3way_C06"/>
<trip id="12" depart="3.7199999999999998" fromJunction="3way_E02" toJunction="3way_D10"/>
<trip id="13" depart="4.03" fromJunction="4way_G06" toJunction="3way_F10"/>
<trip id="14" depart="4.34" fromJunction="4way_B08" toJunction="3way_D01"/>
<trip id="15" depart="4.65" fromJunction="4way_F02" toJunction="3way_H02"/>
<trip id="16" depart="4.96" fromJunction="3way_D05" toJunction="3way_C04"/>
<trip id="17" depart="5.27" fromJunction="4way_D09" toJunction="3way_A05"/>
<trip id="18" depart="5.58" fromJunction="4way_E05" toJunction="4way_G05"/>
<trip id="19" depart="5.89" fromJunction="3way_C03" toJunction="4way_B04"/>
<trip id="20" depart="6.2" fromJunction="3way_A08" toJunction="4way_E06"/>
<trip id="21" depart="6.51" fromJunction="3way_E10" toJunction="3way_H06"/>
<trip id="22" depart="6.82" fromJunction="3way_B05" toJunction="3way_F00"/>
<trip id="23" depart="7.13" fromJunction="3way_C03" toJunction="4way_D06"/>
<trip id="24" depart="7.4399999999999995" fromJunction="3way_C10" toJunction="4way_G09"/>
<trip id="25" depart="7.75" fromJunction="3way_G10" toJunction="3way_H06"/>
<trip id="26" depart="8.06" fromJunction="3way_H03" toJunction="4way_E03"/>
<trip id="27" depart="8.37" fromJunction="3way_H04" toJunction="3way_C06"/>
<trip id="28" depart="8.68" fromJunction="3way_C10" toJunction="3way_G10"/>
<trip id="29" depart="8.99" fromJunction="3way_E10" toJunction="4way_E03"/>
<trip id="30" depart="9.3" fromJunction="3way_B05" toJunction="3way_H07"/>
<trip id="31" depart="9.61" fromJunction="3way_B10" toJunction="4way_F06"/>
<trip id="32" depart="9.92" fromJunction="3way_B10" toJunction="4way_F07"/>
<trip id="33" depart="10.23" fromJunction="3way_C06" toJunction="4way_G08"/>
<trip id="34" depart="10.54" fromJunction="4way_D08" toJunction="4way_G08"/>
<trip id="35" depart="10.85" fromJunction="3way_A06" toJunction="4way_E09"/>
<trip id="36" depart="11.16" fromJunction="3way_D10" toJunction="3way_H01"/>
<trip id="37" depart="11.47" fromJunction="3way_D10" toJunction="3way_G00"/>
<trip id="38" depart="11.78" fromJunction="4way_B08" toJunction="3way_F00"/>
<trip id="39" depart="12.09" fromJunction="4way_E05" toJunction="3way_A08"/>
<trip id="40" depart="12.4" fromJunction="3way_H02" toJunction="3way_D05"/>
<trip id="41" depart="12.709999999999999" fromJunction="3way_B10" toJunction="3way_D01"/>
<trip id="42" depart="13.02" fromJunction="4way_G04" toJunction="4way_D06"/>
<trip id="43" depart="13.33" fromJunction="4way_E04" toJunction="3way_F00"/>
<trip id="44" depart="13.64" fromJunction="4way_E07" toJunction="3way_E10"/>
<trip id="45" depart="13.95" fromJunction="3way_H08" toJunction="3way_H01"/>
<trip id="46" depart="14.26" fromJunction="3way_A05" toJunction="4way_D07"/>
<trip id="47" depart="14.57" fromJunction="3way_A04" toJunction="4way_F06"/>
<trip id="48" depart="14.879999999999999" fromJunction="3way_H02" toJunction="4way_E04"/>
<trip id="49" depart="15.19" fromJunction="4way_G07" toJunction="4way_E08"/>
<trip id="50" depart="15.5" fromJunction="4way_D06" toJunction="3way_H04"/>
<trip id="51" depart="15.81" fromJunction="4way_D06" toJunction="4way_D07"/>
<trip id="52" depart="16.12" fromJunction="4way_G06" toJunction="3way_H05"/>
<trip id="53" depart="16.43" fromJunction="4way_F07" toJunction="3way_C04"/>
<trip id="54" depart="16.74" fromJunction="3way_G00" toJunction="4way_E06"/>
<trip id="55" depart="17.05" fromJunction="4way_B07" toJunction="4way_F05"/>
<trip id="56" depart="17.36" fromJunction="4way_D06" toJunction="4way_G01"/>
<trip id="57" depart="17.669999999999998" fromJunction="4way_E05" toJunction="4way_G01"/>
<trip id="58" depart="17.98" fromJunction="4way_C09" toJunction="4way_E08"/>
<trip id="59" depart="18.29" fromJunction="3way_E02" toJunction="4way_G06"/>
<trip id="60" depart="18.6" fromJunction="4way_D08" toJunction="4way_B09"/>
<trip id="61" depart="18.91" fromJunction="3way_G00" toJunction="3way_A05"/>
<trip id="62" depart="19.22" fromJunction="3way_H01" toJunction="4way_E03"/>
<trip id="63" depart="19.53" fromJunction="4way_B09" toJunction="4way_D09"/>
<trip id="64" depart="19.84" fromJunction="3way_G00" toJunction="3way_E10"/>
<trip id="65" depart="20.15" fromJunction="4way_D07" toJunction="4way_D06"/>
<trip id="66" depart="20.46" fromJunction="4way_E03" toJunction="4way_D06"/>
<trip id="67" depart="20.77" fromJunction="3way_C03" toJunction="3way_E02"/>
<trip id="68" depart="21.08" fromJunction="3way_B05" toJunction="4way_G02"/>
<trip id="69" depart="21.39" fromJunction="4way_G02" toJunction="3way_C03"/>
<trip id="70" depart="21.7" fromJunction="4way_E06" toJunction="4way_F05"/>
<trip id="71" depart="22.01" fromJunction="4way_G04" toJunction="3way_C10"/>
<trip id="72" depart="22.32" fromJunction="4way_G09" toJunction="4way_E07"/>
<trip id="73" depart="22.63" fromJunction="4way_F09" toJunction="3way_F10"/>
<trip id="74" depart="22.94" fromJunction="4way_D09" toJunction="3way_G10"/>
<trip id="75" depart="23.25" fromJunction="4way_F08" toJunction="3way_D10"/>
<trip id="76" depart="23.56" fromJunction="3way_D05" toJunction="4way_F05"/>
<trip id="77" depart="23.87" fromJunction="3way_A08" toJunction="4way_B08"/>
<trip id="78" depart="24.18" fromJunction="3way_C04" toJunction="4way_E06"/>
<trip id="79" depart="24.49" fromJunction="4way_F09" toJunction="4way_E07"/>
<trip id="80" depart="24.8" fromJunction="4way_F08" toJunction="4way_G08"/>
<trip id="81" depart="25.11" fromJunction="4way_B04" toJunction="3way_A04"/>
<trip id="82" depart="25.419999999999998" fromJunction="3way_H09" toJunction="4way_E08"/>
<trip id="83" depart="25.73" fromJunction="3way_A07" toJunction="3way_D01"/>
<trip id="84" depart="26.04" fromJunction="3way_A05" toJunction="3way_H07"/>
<trip id="85" depart="26.35" fromJunction="3way_H05" toJunction="4way_F04"/>
<trip id="86" depart="26.66" fromJunction="4way_G04" toJunction="3way_B03"/>
<trip id="87" depart="26.97" fromJunction="3way_A06" toJunction="4way_E06"/>
<trip id="88" depart="27.28" fromJunction="4way_D09" toJunction="3way_G10"/>
<trip id="89" depart="27.59" fromJunction="3way_H04" toJunction="4way_D06"/>
<trip id="90" depart="27.9" fromJunction="4way_D09" toJunction="4way_G05"/>
<trip id="91" depart="28.21" fromJunction="4way_D07" toJunction="4way_D03"/>
<trip id="92" depart="28.52" fromJunction="3way_F00" toJunction="4way_E08"/>
<trip id="93" depart="28.83" fromJunction="3way_H06" toJunction="4way_B07"/>
<trip id="94" depart="29.14" fromJunction="4way_G05" toJunction="3way_H08"/>
<trip id="95" depart="29.45" fromJunction="4way_C08" toJunction="4way_E09"/>
<trip id="96" depart="29.759999999999998" fromJunction="3way_H03" toJunction="3way_H05"/>
<trip id="97" depart="30.07" fromJunction="3way_C03" toJunction="3way_A08"/>
<trip id="98" depart="30.38" fromJunction="4way_E06" toJunction="3way_F00"/>
<trip id="99" depart="30.69" fromJunction="3way_H09" toJunction="4way_B06"/>
<trip id="100" depart="31.0" fromJunction="3way_A08" toJunction="3way_A05"/>
<trip id="101" depart="31.31" fromJunction="3way_C04" toJunction="4way_E04"/>
<trip id="102" depart="31.62" fromJunction="4way_G02" toJunction="4way_D03"/>
<trip id="103" depart="31.93" fromJunction="3way_H06" toJunction="4way_G09"/>
<trip id="104" depart="32.24" fromJunction="3way_H03" toJunction="4way_E03"/>
<trip id="105" depart="32.55" fromJunction="4way_F01" toJunction="3way_A05"/>
<trip id="106" depart="32.86" fromJunction="4way_B06" toJunction="3way_E00"/>
<trip id="107" depart="33.17" fromJunction="4way_F06" toJunction="4way_D07"/>
<trip id="108" depart="33.48" fromJunction="4way_F09" toJunction="4way_E01"/>
<trip id="109" depart="33.79" fromJunction="4way_F04" toJunction="3way_H02"/>
<trip id="110" depart="34.1" fromJunction="4way_G06" toJunction="3way_H08"/>
<trip id="111" depart="34.41" fromJunction="3way_H06" toJunction="4way_E05"/>
<trip id="112" depart="34.72" fromJunction="4way_E08" toJunction="4way_G06"/>
<trip id="113" depart="35.03" fromJunction="3way_H06" toJunction="3way_H03"/>
<trip id="114" depart="35.339999999999996" fromJunction="3way_A05" toJunction="3way_D01"/>
<trip id="115" depart="35.65" fromJunction="4way_B09" toJunction="3way_H07"/>
<trip id="116" depart="35.96" fromJunction="3way_C06" toJunction="3way_B05"/>
<trip id="117" depart="36.27" fromJunction="4way_D07" toJunction="3way_H02"/>
<trip id="118" depart="36.58" fromJunction="3way_D10" toJunction="4way_F09"/>
<trip id="119" depart="36.89" fromJunction="3way_E10" toJunction="3way_D01"/>
<trip id="120" depart="37.2" fromJunction="4way_B07" toJunction="4way_E07"/>
<trip id="121" depart="37.51" fromJunction="3way_H08" toJunction="3way_D05"/>
<trip id="122" depart="37.82" fromJunction="4way_C08" toJunction="3way_F10"/>
<trip id="123" depart="38.13" fromJunction="4way_G05" toJunction="4way_B04"/>
<trip id="124" depart="38.44" fromJunction="4way_E09" toJunction="4way_F02"/>
<trip id="125" depart="38.75" fromJunction="3way_B10" toJunction="4way_G03"/>
<trip id="126" depart="39.06" fromJunction="4way_D07" toJunction="4way_D04"/>
<trip id="127" depart="39.37" fromJunction="3way_G00" toJunction="4way_G07"/>
<trip id="128" depart="39.68" fromJunction="3way_C10" toJunction="3way_H04"/>
<trip id="129" depart="39.99" fromJunction="4way_G04" toJunction="3way_A05"/>
<trip id="130" depart="40.3" fromJunction="4way_F03" toJunction="4way_E04"/>
<trip id="131" depart="40.61" fromJunction="4way_D07" toJunction="3way_H01"/>
<trip id="132" depart="40.92" fromJunction="4way_C07" toJunction="3way_A08"/>
<trip id="133" depart="41.23" fromJunction="4way_G01" toJunction="4way_G08"/>
<trip id="134" depart="41.54" fromJunction="4way_G07" toJunction="3way_B03"/>
<trip id="135" depart="41.85" fromJunction="4way_G06" toJunction="3way_H05"/>
<trip id="136" depart="42.16" fromJunction="4way_F04" toJunction="4way_G05"/>
<trip id="137" depart="42.47" fromJunction="4way_F09" toJunction="4way_E01"/>
<trip id="138" depart="42.78" fromJunction="4way_F08" toJunction="3way_G00"/>
<trip id="139" depart="43.089999999999996" fromJunction="3way_A04" toJunction="4way_D09"/>
<trip id="140" depart="43.4" fromJunction="3way_F10" toJunction="4way_B04"/>
<trip id="141" depart="43.71" fromJunction="4way_C07" toJunction="4way_G08"/>
<trip id="142" depart="44.02" fromJunction="3way_E02" toJunction="4way_C08"/>
<trip id="143" depart="44.33" fromJunction="3way_E10" toJunction="3way_B05"/>
<trip id="144" depart="44.64" fromJunction="3way_H08" toJunction="4way_F06"/>
<trip id="145" depart="44.95" fromJunction="3way_H05" toJunction="4way_C09"/>
<trip id="146" depart="45.26" fromJunction="4way_F09" toJunction="3way_C10"/>
<trip id="147" depart="45.57" fromJunction="4way_G07" toJunction="4way_G08"/>
<trip id="148" depart="45.88" fromJunction="4way_F02" toJunction="4way_G03"/>
<trip id="149" depart="46.19" fromJunction="3way_A09" toJunction="3way_E00"/>
<trip id="150" depart="46.5" fromJunction="3way_H05" toJunction="4way_B08"/>
<trip id="151" depart="46.81" fromJunction="3way_A07" toJunction="3way_E10"/>
<trip id="152" depart="47.12" fromJunction="3way_A04" toJunction="4way_E08"/>
<trip id="153" depart="47.43" fromJunction="3way_F10" toJunction="4way_F02"/>
<trip id="154" depart="47.74" fromJunction="3way_B10" toJunction="3way_A09"/>
<trip id="155" depart="48.05" fromJunction="3way_H04" toJunction="4way_E04"/>
<trip id="156" depart="48.36" fromJunction="3way_D05" toJunction="4way_B09"/>
<trip id="157" depart="48.67" fromJunction="4way_E08" toJunction="4way_F08"/>
<trip id="158" depart="48.98" fromJunction="3way_E10" toJunction="3way_H02"/>
<trip id="159" depart="49.29" fromJunction="3way_G00" toJunction="3way_A07"/>
<trip id="160" depart="49.6" fromJunction="3way_C04" toJunction="3way_H03"/>
<trip id="161" depart="49.91" fromJunction="4way_E06" toJunction="4way_E05"/>
<trip id="162" depart="50.22" fromJunction="4way_B06" toJunction="3way_H01"/>
<trip id="163" depart="50.53" fromJunction="4way_F03" toJunction="3way_H08"/>
<trip id="164" depart="50.839999999999996" fromJunction="4way_E06" toJunction="3way_A08"/>
<trip id="165" depart="51.15" fromJunction="4way_F02" toJunction="4way_F03"/>
<trip id="166" depart="51.46" fromJunction="3way_B05" toJunction="3way_H03"/>
<trip id="167" depart="51.77" fromJunction="3way_H02" toJunction="4way_D07"/>
<trip id="168" depart="52.08" fromJunction="3way_H07" toJunction="3way_B05"/>
<trip id="169" depart="52.39" fromJunction="3way_A07" toJunction="3way_C06"/>
<trip id="170" depart="52.7" fromJunction="3way_A09" toJunction="4way_F04"/>
<trip id="171" depart="53.01" fromJunction="3way_F00" toJunction="3way_D01"/>
<trip id="172" depart="53.32" fromJunction="4way_G07" toJunction="4way_D06"/>
<trip id="173" depart="53.63" fromJunction="3way_A06" toJunction="3way_E02"/>
<trip id="174" depart="53.94" fromJunction="4way_C09" toJunction="4way_B09"/>
<trip id="175" depart="54.25" fromJunction="4way_E05" toJunction="4way_D03"/>
<trip id="176" depart="54.56" fromJunction="3way_E10" toJunction="3way_H02"/>
<trip id="177" depart="54.87" fromJunction="4way_G06" toJunction="4way_B07"/>
<trip id="178" depart="55.18" fromJunction="4way_G03" toJunction="3way_H08"/>
<trip id="179" depart="55.49" fromJunction="3way_C04" toJunction="4way_D04"/>
<trip id="180" depart="55.8" fromJunction="3way_C06" toJunction="4way_G01"/>
<trip id="181" depart="56.11" fromJunction="4way_B07" toJunction="4way_E08"/>
<trip id="182" depart="56.42" fromJunction="4way_E05" toJunction="4way_G03"/>
<trip id="183" depart="56.73" fromJunction="3way_E00" toJunction="4way_E06"/>
<trip id="184" depart="57.04" fromJunction="4way_E01" toJunction="4way_F01"/>
<trip id="185" depart="57.35" fromJunction="3way_G10" toJunction="3way_H04"/>
<trip id="186" depart="57.66" fromJunction="4way_G07" toJunction="4way_F04"/>
<trip id="187" depart="57.97" fromJunction="4way_D07" toJunction="3way_C04"/>
<trip id="188" depart="58.28" fromJunction="3way_C04" toJunction="4way_F08"/>
<trip id="189" depart="58.589999999999996" fromJunction="4way_D06" toJunction="4way_G06"/>
<trip id="190" depart="58.9" fromJunction="4way_G03" toJunction="4way_F06"/>
<trip id="191" depart="59.21" fromJunction="3way_G10" toJunction="4way_F05"/>
<trip id="192" depart="59.519999999999996" fromJunction="4way_B07" toJunction="4way_E01"/>
<trip id="193" depart="59.83" fromJunction="4way_B09" toJunction="3way_A08"/>
<trip id="194" depart="60.14" fromJunction="4way_F08" toJunction="3way_H03"/>
<trip id="195" depart="60.45" fromJunction="4way_G07" toJunction="3way_A06"/>
<trip id="196" depart="60.76" fromJunction="3way_H08" toJunction="3way_A05"/>
<trip id="197" depart="61.07" fromJunction="4way_G04" toJunction="4way_B07"/>
<trip id="198" depart="61.38" fromJunction="4way_G06" toJunction="3way_C10"/>
<trip id="199" depart="61.69" fromJunction="3way_C04" toJunction="4way_F09"/>
<trip id="200" depart="62.0" fromJunction="3way_H05" toJunction="3way_E00"/>
<trip id="201" depart="62.31" fromJunction="3way_A06" toJunction="4way_D09"/>
<trip id="202" depart="62.62" fromJunction="4way_B09" toJunction="3way_A05"/>
<trip id="203" depart="62.93" fromJunction="3way_H03" toJunction="3way_A08"/>
<trip id="204" depart="63.24" fromJunction="3way_H03" toJunction="3way_H06"/>
<trip id="205" depart="63.55" fromJunction="3way_A04" toJunction="3way_E10"/>
<trip id="206" depart="63.86" fromJunction="4way_D09" toJunction="3way_D10"/>
<trip id="207" depart="64.17" fromJunction="4way_G09" toJunction="4way_G08"/>
<trip id="208" depart="64.48" fromJunction="3way_G10" toJunction="4way_B08"/>
<trip id="209" depart="64.79" fromJunction="4way_C08" toJunction="4way_E01"/>
<trip id="210" depart="65.1" fromJunction="3way_A08" toJunction="4way_G09"/>
<trip id="211" depart="65.41" fromJunction="3way_H01" toJunction="4way_F03"/>
<trip id="212" depart="65.72" fromJunction="4way_E03" toJunction="3way_H04"/>
<trip id="213" depart="66.03" fromJunction="4way_E03" toJunction="3way_H04"/>
<trip id="214" depart="66.34" fromJunction="4way_B09" toJunction="3way_D01"/>
<trip id="215" depart="66.65" fromJunction="3way_H01" toJunction="4way_D04"/>
<trip id="216" depart="66.96" fromJunction="4way_B08" toJunction="4way_E06"/>
<trip id="217" depart="67.27" fromJunction="4way_F06" toJunction="4way_B04"/>
<trip id="218" depart="67.58" fromJunction="3way_A07" toJunction="4way_G04"/>
<trip id="219" depart="67.89" fromJunction="4way_B04" toJunction="3way_H05"/>
<trip id="220" depart="68.2" fromJunction="4way_G08" toJunction="4way_F05"/>
<trip id="221" depart="68.51" fromJunction="4way_G03" toJunction="4way_G07"/>
<trip id="222" depart="68.82" fromJunction="4way_G09" toJunction="3way_G00"/>
<trip id="223" depart="69.13" fromJunction="3way_C10" toJunction="3way_H04"/>
<trip id="224" depart="69.44" fromJunction="3way_H05" toJunction="4way_G06"/>
<trip id="225" depart="69.75" fromJunction="3way_A08" toJunction="4way_E05"/>
<trip id="226" depart="70.06" fromJunction="4way_G01" toJunction="4way_E08"/>
<trip id="227" depart="70.37" fromJunction="4way_B06" toJunction="3way_H02"/>
<trip id="228" depart="70.67999999999999" fromJunction="4way_E09" toJunction="3way_B05"/>
<trip id="229" depart="70.99" fromJunction="3way_H09" toJunction="3way_H04"/>
<trip id="230" depart="71.3" fromJunction="3way_G00" toJunction="3way_C04"/>
<trip id="231" depart="71.61" fromJunction="3way_H04" toJunction="4way_F07"/>
<trip id="232" depart="71.92" fromJunction="4way_G05" toJunction="4way_C09"/>
<trip id="233" depart="72.23" fromJunction="4way_F09" toJunction="4way_E01"/>
<trip id="234" depart="72.54" fromJunction="4way_F01" toJunction="4way_G05"/>
<trip id="235" depart="72.85" fromJunction="4way_G07" toJunction="4way_E06"/>
<trip id="236" depart="73.16" fromJunction="3way_C04" toJunction="4way_G09"/>
<trip id="237" depart="73.47" fromJunction="3way_G00" toJunction="3way_A09"/>
<trip id="238" depart="73.78" fromJunction="4way_B09" toJunction="3way_F10"/>
<trip id="239" depart="74.09" fromJunction="4way_D08" toJunction="3way_E10"/>
<trip id="240" depart="74.4" fromJunction="4way_G02" toJunction="4way_B06"/>
<trip id="241" depart="74.71" fromJunction="4way_D04" toJunction="4way_G07"/>
<trip id="242" depart="75.02" fromJunction="4way_D07" toJunction="3way_H02"/>
<trip id="243" depart="75.33" fromJunction="4way_B08" toJunction="4way_G02"/>
<trip id="244" depart="75.64" fromJunction="3way_H02" toJunction="4way_D04"/>
<trip id="245" depart="75.95" fromJunction="4way_B07" toJunction="3way_C04"/>
<trip id="246" depart="76.26" fromJunction="4way_C09" toJunction="3way_H04"/>
<trip id="247" depart="76.57" fromJunction="3way_B05" toJunction="3way_F00"/>
<trip id="248" depart="76.88" fromJunction="4way_F01" toJunction="3way_D01"/>
<trip id="249" depart="77.19" fromJunction="4way_G04" toJunction="3way_B03"/>
<trip id="250" depart="77.5" fromJunction="3way_A07" toJunction="4way_F09"/>
<trip id="251" depart="77.81" fromJunction="3way_C04" toJunction="3way_H03"/>
<trip id="252" depart="78.12" fromJunction="4way_B04" toJunction="3way_C10"/>
<trip id="253" depart="78.42999999999999" fromJunction="4way_E04" toJunction="4way_E09"/>
<trip id="254" depart="78.74" fromJunction="4way_E07" toJunction="4way_D09"/>
<trip id="255" depart="79.05" fromJunction="3way_B03" toJunction="3way_H07"/>
<trip id="256" depart="79.36" fromJunction="4way_G01" toJunction="4way_E04"/>
<trip id="257" depart="79.67" fromJunction="3way_H01" toJunction="4way_D04"/>
<trip id="258" depart="79.98" fromJunction="4way_E07" toJunction="3way_A06"/>
<trip id="259" depart="80.29" fromJunction="3way_B05" toJunction="3way_A04"/>
<trip id="260" depart="80.6" fromJunction="4way_G04" toJunction="4way_D03"/>
<trip id="261" depart="80.91" fromJunction="4way_B08" toJunction="3way_B10"/>
<trip id="262" depart="81.22" fromJunction="3way_B03" toJunction="3way_A05"/>
<trip id="263" depart="81.53" fromJunction="3way_H01" toJunction="4way_D09"/>
<trip id="264" depart="81.84" fromJunction="3way_D10" toJunction="3way_H06"/>
<trip id="265" depart="82.15" fromJunction="4way_E06" toJunction="4way_D06"/>
<trip id="266" depart="82.46" fromJunction="4way_G06" toJunction="4way_E04"/>
<trip id="267" depart="82.77" fromJunction="3way_E02" toJunction="3way_A04"/>
<trip id="268" depart="83.08" fromJunction="4way_D07" toJunction="4way_D08"/>
<trip id="269" depart="83.39" fromJunction="3way_A05" toJunction="4way_G07"/>
<trip id="270" depart="83.7" fromJunction="4way_F05" toJunction="4way_E06"/>
<trip id="271" depart="84.01" fromJunction="3way_B03" toJunction="4way_C09"/>
<trip id="272" depart="84.32" fromJunction="3way_C10" toJunction="4way_F03"/>
<trip id="273" depart="84.63" fromJunction="3way_D01" toJunction="3way_C03"/>
<trip id="274" depart="84.94" fromJunction="3way_B10" toJunction="4way_E05"/>
<trip id="275" depart="85.25" fromJunction="4way_B08" toJunction="3way_H05"/>
<trip id="276" depart="85.56" fromJunction="4way_G01" toJunction="4way_D09"/>
<trip id="277" depart="85.87" fromJunction="3way_E10" toJunction="4way_D09"/>
<trip id="278" depart="86.17999999999999" fromJunction="4way_F09" toJunction="4way_G08"/>
<trip id="279" depart="86.49" fromJunction="4way_G04" toJunction="4way_C09"/>
<trip id="280" depart="86.8" fromJunction="4way_G04" toJunction="4way_D03"/>
<trip id="281" depart="87.11" fromJunction="4way_G07" toJunction="4way_F06"/>
<trip id="282" depart="87.42" fromJunction="3way_A06" toJunction="4way_G04"/>
<trip id="283" depart="87.73" fromJunction="4way_B07" toJunction="3way_H09"/>
<trip id="284" depart="88.04" fromJunction="3way_G00" toJunction="4way_G06"/>
<trip id="285" depart="88.35" fromJunction="4way_G01" toJunction="3way_G10"/>
<trip id="286" depart="88.66" fromJunction="4way_G03" toJunction="3way_C04"/>
<trip id="287" depart="88.97" fromJunction="4way_E03" toJunction="3way_G10"/>
<trip id="288" depart="89.28" fromJunction="3way_A09" toJunction="3way_C03"/>
<trip id="289" depart="89.59" fromJunction="3way_H04" toJunction="4way_E06"/>
<trip id="290" depart="89.9" fromJunction="3way_A08" toJunction="3way_A06"/>
<trip id="291" depart="90.21" fromJunction="4way_G03" toJunction="3way_A08"/>
<trip id="292" depart="90.52" fromJunction="4way_G02" toJunction="4way_E09"/>
<trip id="293" depart="90.83" fromJunction="4way_D03" toJunction="4way_E04"/>
<trip id="294" depart="91.14" fromJunction="4way_G09" toJunction="3way_G00"/>
<trip id="295" depart="91.45" fromJunction="3way_C06" toJunction="3way_B05"/>
<trip id="296" depart="91.76" fromJunction="4way_G08" toJunction="4way_B06"/>
<trip id="297" depart="92.07" fromJunction="3way_E00" toJunction="3way_H09"/>
<trip id="298" depart="92.38" fromJunction="3way_A08" toJunction="4way_E04"/>
<trip id="299" depart="92.69" fromJunction="4way_C07" toJunction="4way_D08"/>
<trip id="300" depart="93.0" fromJunction="3way_H04" toJunction="3way_H01"/>
<trip id="301" depart="93.31" fromJunction="3way_B05" toJunction="3way_D01"/>
<trip id="302" depart="93.62" fromJunction="3way_B03" toJunction="3way_C04"/>
<trip id="303" depart="93.92999999999999" fromJunction="3way_E10" toJunction="4way_G07"/>
<trip id="304" depart="94.24" fromJunction="3way_B03" toJunction="3way_B10"/>
<trip id="305" depart="94.55" fromJunction="4way_E03" toJunction="4way_D07"/>
<trip id="306" depart="94.86" fromJunction="4way_G09" toJunction="4way_B07"/>
<trip id="307" depart="95.17" fromJunction="4way_E07" toJunction="4way_B04"/>
<trip id="308" depart="95.48" fromJunction="4way_F05" toJunction="4way_E01"/>
<trip id="309" depart="95.79" fromJunction="4way_G02" toJunction="4way_G08"/>
<trip id="310" depart="96.1" fromJunction="4way_E06" toJunction="4way_F02"/>
<trip id="311" depart="96.41" fromJunction="3way_F10" toJunction="3way_B03"/>
<trip id="312" depart="96.72" fromJunction="3way_H04" toJunction="3way_A08"/>
<trip id="313" depart="97.03" fromJunction="3way_D01" toJunction="3way_C03"/>
<trip id="314" depart="97.34" fromJunction="4way_G07" toJunction="4way_F02"/>
<trip id="315" depart="97.65" fromJunction="3way_C10" toJunction="3way_D10"/>
<trip id="316" depart="97.96" fromJunction="4way_E09" toJunction="4way_D07"/>
<trip id="317" depart="98.27" fromJunction="4way_G05" toJunction="4way_F08"/>
<trip id="318" depart="98.58" fromJunction="4way_B07" toJunction="4way_G08"/>
<trip id="319" depart="98.89" fromJunction="3way_F10" toJunction="4way_B06"/>
<trip id="320" depart="99.2" fromJunction="4way_E03" toJunction="4way_E05"/>
<trip id="321" depart="99.51" fromJunction="3way_C10" toJunction="4way_F09"/>
<trip id="322" depart="99.82" fromJunction="4way_D06" toJunction="4way_C08"/>
<trip id="323" depart="100.13" fromJunction="3way_H09" toJunction="3way_H04"/>
<trip id="324" depart="100.44" fromJunction="3way_A08" toJunction="4way_F08"/>
<trip id="325" depart="100.75" fromJunction="3way_D10" toJunction="3way_C06"/>
<trip id="326" depart="101.06" fromJunction="4way_G08" toJunction="3way_C04"/>
<trip id="327" depart="101.37" fromJunction="4way_F08" toJunction="4way_B09"/>
<trip id="328" depart="101.67999999999999" fromJunction="3way_H02" toJunction="3way_D10"/>
<trip id="329" depart="101.99" fromJunction="4way_B07" toJunction="4way_B08"/>
<trip id="330" depart="102.3" fromJunction="3way_B03" toJunction="4way_E04"/>
<trip id="331" depart="102.61" fromJunction="3way_E02" toJunction="4way_E07"/>
<trip id="332" depart="102.92" fromJunction="3way_C03" toJunction="4way_B07"/>
<trip id="333" depart="103.23" fromJunction="3way_A09" toJunction="4way_D09"/>
<trip id="334" depart="103.54" fromJunction="4way_E03" toJunction="4way_F06"/>
<trip id="335" depart="103.85" fromJunction="4way_D03" toJunction="4way_E08"/>
<trip id="336" depart="104.16" fromJunction="4way_B08" toJunction="3way_C10"/>
<trip id="337" depart="104.47" fromJunction="3way_E00" toJunction="4way_B08"/>
<trip id="338" depart="104.78" fromJunction="4way_E09" toJunction="3way_A06"/>
<trip id="339" depart="105.09" fromJunction="4way_D08" toJunction="3way_C10"/>
<trip id="340" depart="105.4" fromJunction="4way_E01" toJunction="4way_E06"/>
<trip id="341" depart="105.71" fromJunction="3way_C10" toJunction="4way_G07"/>
<trip id="342" depart="106.02" fromJunction="3way_A06" toJunction="4way_F09"/>
<trip id="343" depart="106.33" fromJunction="4way_B08" toJunction="4way_D03"/>
<trip id="344" depart="106.64" fromJunction="3way_B05" toJunction="3way_D01"/>
<trip id="345" depart="106.95" fromJunction="3way_A05" toJunction="3way_H08"/>
<trip id="346" depart="107.26" fromJunction="4way_F07" toJunction="3way_D01"/>
<trip id="347" depart="107.57" fromJunction="3way_H05" toJunction="3way_B05"/>
<trip id="348" depart="107.88" fromJunction="3way_B10" toJunction="3way_A09"/>
<trip id="349" depart="108.19" fromJunction="3way_C10" toJunction="3way_H06"/>
<trip id="350" depart="108.5" fromJunction="3way_A08" toJunction="3way_H02"/>
<trip id="351" depart="108.81" fromJunction="4way_F08" toJunction="3way_A08"/>
<trip id="352" depart="109.12" fromJunction="3way_D05" toJunction="3way_G10"/>
<trip id="353" depart="109.42999999999999" fromJunction="3way_C04" toJunction="4way_F02"/>
<trip id="354" depart="109.74" fromJunction="3way_H07" toJunction="3way_G10"/>
<trip id="355" depart="110.05" fromJunction="4way_D03" toJunction="3way_C03"/>
<trip id="356" depart="110.36" fromJunction="4way_F03" toJunction="4way_B04"/>
<trip id="357" depart="110.67" fromJunction="4way_G04" toJunction="4way_F01"/>
<trip id="358" depart="110.98" fromJunction="4way_G02" toJunction="3way_A06"/>
<trip id="359" depart="111.29" fromJunction="4way_G01" toJunction="4way_B07"/>
<trip id="360" depart="111.6" fromJunction="4way_G09" toJunction="4way_E05"/>
<trip id="361" depart="111.91" fromJunction="3way_B05" toJunction="4way_F01"/>
<trip id="362" depart="112.22" fromJunction="4way_B06" toJunction="4way_C09"/>
<trip id="363" depart="112.53" fromJunction="3way_H03" toJunction="3way_B05"/>
<trip id="364" depart="112.84" fromJunction="4way_E05" toJunction="4way_C08"/>
<trip id="365" depart="113.15" fromJunction="3way_D01" toJunction="3way_H02"/>
<trip id="366" depart="113.46" fromJunction="3way_G10" toJunction="3way_D10"/>
<trip id="367" depart="113.77" fromJunction="4way_G07" toJunction="3way_A07"/>
<trip id="368" depart="114.08" fromJunction="3way_H09" toJunction="3way_A04"/>
<trip id="369" depart="114.39" fromJunction="3way_A09" toJunction="4way_D09"/>
<trip id="370" depart="114.7" fromJunction="4way_E07" toJunction="4way_G01"/>
<trip id="371" depart="115.01" fromJunction="4way_C09" toJunction="4way_G07"/>
<trip id="372" depart="115.32" fromJunction="4way_D04" toJunction="3way_G00"/>
<trip id="373" depart="115.63" fromJunction="3way_D01" toJunction="4way_G05"/>
<trip id="374" depart="115.94" fromJunction="4way_G01" toJunction="3way_H02"/>
<trip id="375" depart="116.25" fromJunction="3way_A04" toJunction="3way_B05"/>
<trip id="376" depart="116.56" fromJunction="3way_F00" toJunction="3way_H04"/>
<trip id="377" depart="116.87" fromJunction="3way_C06" toJunction="4way_F08"/>
<trip id="378" depart="117.17999999999999" fromJunction="3way_B03" toJunction="3way_C04"/>
<trip id="379" depart="117.49" fromJunction="4way_G06" toJunction="4way_G01"/>
<trip id="380" depart="117.8" fromJunction="4way_B06" toJunction="4way_G09"/>