<routes xmlns:xsi="http://www.w3.org/2001/XMLSchema-instance" xsi:noNamespaceSchemaLocation="http://sumo.dlr.de/xsd/routes_file.xsd">
<trip id="0" depart="0.0" fromJunction="4way_292" toJunction="4way_49"/>
<trip id="1" depart="0.1538" fromJunction="4way_368" toJunction="4way_110"/>
<trip id="2" depart="0.3076" fromJunction="4way_91" toJunction="4way_126"/>
<trip id="3" depart="0.4614" fromJunction="4way_256" toJunction="4way_246"/>
<trip id="4" depart="0.6152" fromJunction="4way_165" toJunction="4way_98"/>
<trip id="5" depart="0.7689999999999999" fromJunction="4way_248" toJunction="4way_174"/>
<trip id="6" depart="0.9228" fromJunction="4way_157" toJunction="4way_189"/>
<trip id="7" depart="1.0766" fromJunction="3way_359" toJunction="3way_239"/>
<trip id="8" depart="1.2304" fromJunction="4way_135" toJunction="3way_9"/>
<trip id="9" depart="1.3841999999999999" fromJunction="4way_76" toJunction="4way_74"/>
<trip id="10" depart="1.5379999999999998" fromJunction="4way_234" toJunction="4way_218"/>
<trip id="11" depart="1.6918" fromJunction="4way_94" toJunction="4way_67"/>
<trip id="12" depart="1.8456" fromJunction="4way_51" toJunction="3way_388"/>
<trip id="13" depart="1.9993999999999998" fromJunction="4way_317" toJunction="3way_320"/>
<trip id="14" depart="2.1532" fromJunction="4way_66" toJunction="4way_188"/>
<trip id="15" depart="2.307" fromJunction="4way_34" toJunction="4way_302"/>
<trip id="16" depart="2.4608" fromJunction="4way_209" toJunction="4way_27"/>
<trip id="17" depart="2.6146" fromJunction="4way_230" toJunction="3way_8"/>
<trip id="18" depart="2.7683999999999997" fromJunction="4way_230" toJunction="4way_190"/>
<trip id="19" depart="2.9221999999999997" fromJunction="4way_32" toJunction="4way_297"/>
<trip id="20" depart="3.0759999999999996" fromJunction="4way_246" toJunction="4way_344"/>
<trip id="21" depart="3.2298" fromJunction="3way_139" toJunction="4way_152"/>
<trip id="22" depart="3.3836" fromJunction="4way_291" toJunction="4way_271"/>
<trip id="23" depart="3.5374" fromJunction="3way_383" toJunction="4way_241"/>
<trip id="24" depart="3.6912" fromJunction="4way_25" toJunction="4way_343"/>
<trip id="25" depart="3.8449999999999998" fromJunction="4way_246" toJunction="4way_209"/>
<trip id="26" depart="3.9987999999999997" fromJunction="3way_394" toJunction="4way_298"/>
<trip id="27" depart="4.1526" fromJunction="3way_180" toJunction="4way_221"/>
<trip id="28" depart="4.3064" fromJunction="4way_222" toJunction="4way_151"/>
<trip id="29" depart="4.4601999999999995" fromJunction="4way_142" toJunction="4way_107"/>
<trip id="30" depart="4.614" fromJunction="3way_391" toJunction="3way_200"/>
<trip id="31" depart="4.767799999999999" fromJunction="3way_360" toJunction="4way_171"/>
<trip id="32" depart="4.9216" fromJunction="4way_65" toJunction="4way_121"/>
<trip id="33" depart="5.0754" fromJunction="3way_396" toJunction="4way_55"/>
<trip id="34" depart="5.2292" fromJunction="3way_396" toJunction="4way_175"/>
<trip id="35" depart="5.383" fromJunction="4way_127" toJunction="4way_198"/>
<trip id="36" depart="5.5367999999999995" fromJunction="4way_130" toJunction="4way_198"/>
<trip id="37" depart="5.6906" fromJunction="3way_16" toJunction="4way_113"/>
<trip id="38" depart="5.844399999999999" fromJunction="3way_387" toJunction="4way_83"/>
<trip id="39" depart="5.9982" fromJunction="3way_387" toJunction="4way_203"/>
<trip id="40" depart="6.151999999999999" fromJunction="4way_66" toJunction="4way_363"/>
<trip id="41" depart="6.3058" fromJunction="4way_112" toJunction="3way_179"/>
<trip id="42" depart="6.4596" fromJunction="4way_322" toJunction="4way_189"/>
<trip id="43" depart="6.6133999999999995" fromJunction="3way_397" toJunction="4way_208"/>
<trip id="44" depart="6.7672" fromJunction="4way_197" toJunction="4way_269"/>
<trip id="45" depart="6.920999999999999" fromJunction="4way_271" toJunction="4way_24"/>
<trip id="46" depart="7.0748" fromJunction="4way_292" toJunction="3way_382"/>
<trip id="47" depart="7.228599999999999" fromJunction="4way_21" toJunction="4way_143"/>
<trip id="48" depart="7.3824" fromJunction="3way_8" toJunction="4way_349"/>
<trip id="49" depart="7.5362" fromJunction="3way_2" toJunction="4way_115"/>
<trip id="50" depart="7.6899999999999995" fromJunction="4way_342" toJunction="4way_351"/>
<trip id="51" depart="7.8438" fromJunction="4way_98" toJunction="4way_93"/>
<trip id="52" depart="7.997599999999999" fromJunction="4way_269" toJunction="4way_182"/>
<trip id="53" depart="8.151399999999999" fromJunction="4way_229" toJunction="4way_30"/>
<trip id="54" depart="8.3052" fromJunction="4way_377" toJunction="4way_341"/>
<trip id="55" depart="8.459" fromJunction="4way_255" toJunction="4way_326"/>
<trip id="56" depart="8.6128" fromJunction="4way_203" toJunction="4way_152"/>
<trip id="57" depart="8.7666" fromJunction="4way_285" toJunction="4way_354"/>
<trip id="58" depart="8.920399999999999" fromJunction="4way_309" toJunction="4way_156"/>
<trip id="59" depart="9.0742" fromJunction="4way_112" toJunction="4way_176"/>
<trip id="60" depart="9.228" fromJunction="4way_28" toJunction="4way_372"/>
<trip id="61" depart="9.3818" fromJunction="4way_91" toJunction="4way_38"/>
<trip id="62" depart="9.535599999999999" fromJunction="4way_150" toJunction="4way_126"/>
<trip id="63" depart="9.6894" fromJunction="4way_243" toJunction="3way_8"/>
<trip id="64" depart="9.8432" fromJunction="4way_143" toJunction="4way_211"/>
<trip id="65" depart="9.997" fromJunction="4way_166" toJunction="4way_230"/>
<trip id="66" depart="10.1508" fromJunction="4way_223" toJunction="3way_381"/>
<trip id="67" depart="10.304599999999999" fromJunction="4way_369" toJunction="4way_209"/>
<trip id="68" depart="10.4584" fromJunction="4way_151" toJunction="4way_249"/>
<trip id="69" depart="10.6122" fromJunction="4way_186" toJunction="4way_151"/>
<trip id="70" depart="10.766" fromJunction="4way_45" toJunction="4way_296"/>
<trip id="71" depart="10.919799999999999" fromJunction="4way_256" toJunction="4way_226"/>
<trip id="72" depart="11.073599999999999" fromJunction="4way_192" toJunction="4way_294"/>
<trip id="73" depart="11.2274" fromJunction="4way_117" toJunction="3way_395"/>
<trip id="74" depart="11.3812" fromJunction="4way_378" toJunction="4way_272"/>
<trip id="75" depart="11.535" fromJunction="4way_56" toJunction="3way_260"/>
<trip id="76" depart="11.688799999999999" fromJunction="4way_210" toJunction="3way_160"/>
<trip id="77" depart="11.8426" fromJunction="4way_255" toJunction="3way_385"/>
<trip id="78" depart="11.9964" fromJunction="4way_209" toJunction="4way_294"/>
<trip id="79" depart="12.1502" fromJunction="3way_219" toJunction="4way_365"/>
<trip id="80" depart="12.303999999999998" fromJunction="4way_366" toJunction="4way_152"/>
<trip id="81" depart="12.457799999999999" fromJunction="4way_56" toJunction="4way_332"/>
<trip id="82" depart="12.6116" fromJunction="4way_315" toJunction="4way_198"/>
<trip id="83" depart="12.7654" fromJunction="4way_344" toJunction="3way_5"/>
<trip id="84" depart="12.9192" fromJunction="3way_100" toJunction="4way_53"/>
<trip id="85" depart="13.072999999999999" fromJunction="3way_99" toJunction="4way_188"/>
<trip id="86" depart="13.226799999999999" fromJunction="3way_8" toJunction="4way_161"/>
<trip id="87" depart="13.3806" fromJunction="4way_341" toJunction="4way_194"/>
<trip id="88" depart="13.5344" fromJunction="4way_177" toJunction="4way_224"/>
<trip id="89" depart="13.6882" fromJunction="3way_13" toJunction="4way_192"/>
<trip id="90" depart="13.841999999999999" fromJunction="4way_270" toJunction="3way_140"/>
<trip id="91" depart="13.9958" fromJunction="4way_102" toJunction="4way_269"/>
<trip id="92" depart="14.1496" fromJunction="4way_210" toJunction="4way_217"/>
<trip id="93" depart="14.3034" fromJunction="4way_369" toJunction="4way_308"/>
<trip id="94" depart="14.457199999999998" fromJunction="4way_323" toJunction="4way_53"/>
<trip id="95" depart="14.610999999999999" fromJunction="4way_241" toJunction="4way_285"/>
<trip id="96" depart="14.7648" fromJunction="4way_297" toJunction="4way_41"/>
<trip id="97" depart="14.9186" fromJunction="4way_307" toJunction="4way_113"/>
<trip id="98" depart="15.0724" fromJunction="4way_222" toJunction="4way_22"/>
<trip id="99" depart="15.226199999999999" fromJunction="4way_226" toJunction="3way_119"/>
<trip id="100" depart="15.379999999999999" fromJunction="4way_132" toJunction="4way_323"/>
<trip id="101" depart="15.5338" fromJunction="3way_20" toJunction="4way_125"/>
<trip id="102" depart="15.6876" fromJunction="3way_199" toJunction="3way_10"/>
<trip id="103" depart="15.841399999999998" fromJunction="4way_366" toJunction="4way_371"/>
<trip id="104" depart="15.995199999999999" fromJunction="4way_296" toJunction="4way_308"/>
<trip id="105" depart="16.149" fromJunction="4way_281" toJunction="4way_318"/>
<trip id="106" depart="16.302799999999998" fromJunction="4way_302" toJunction="4way_231"/>
<trip id="107" depart="16.456599999999998" fromJunction="4way_273" toJunction="3way_9"/>
<trip id="108" depart="16.6104" fromJunction="4way_165" toJunction="4way_24"/>
<trip id="109" depart="16.7642" fromJunction="4way_135" toJunction="4way_349"/>
<trip id="110" depart="16.918" fromJunction="4way_96" toJunction="4way_330"/>
<trip id="111" depart="17.0718" fromJunction="4way_234" toJunction="4way_23"/>
<trip id="112" depart="17.2256" fromJunction="4way_377" toJunction="4way_41"/>
<trip id="113" depart="17.3794" fromJunction="4way_281" toJunction="4way_72"/>
<trip id="114" depart="17.5332" fromJunction="4way_53" toJunction="4way_337"/>
<trip id="115" depart="17.686999999999998" fromJunction="4way_261" toJunction="4way_222"/>
<trip id="116" depart="17.840799999999998" fromJunction="3way_11" toJunction="4way_168"/>
<trip id="117" depart="17.9946" fromJunction="4way_146" toJunction="4way_221"/>
<trip id="118" depart="18.1484" fromJunction="4way_87" toJunction="4way_105"/>
<trip id="119" depart="18.3022" fromJunction="4way_349" toJunction="4way_43"/>
<trip id="120" depart="18.456" fromJunction="3way_388" toJunction="4way_36"/>
<trip id="121" depart="18.6098" fromJunction="3way_382" toJunction="4way_148"/>
<trip id="122" depart="18.7636" fromJunction="4way_265" toJunction="4way_292"/>
<trip id="123" depart="18.9174" fromJunction="4way_21" toJunction="4way_169"/>
<trip id="124" depart="19.071199999999997" fromJunction="4way_287" toJunction="3way_300"/>
<trip id="125" depart="19.224999999999998" fromJunction="4way_277" toJunction="4way_304"/>
<trip id="126" depart="19.3788" fromJunction="4way_193" toJunction="4way_333"/>
<trip id="127" depart="19.5326" fromJunction="3way_339" toJunction="4way_336"/>
<trip id="128" depart="19.6864" fromJunction="4way_329" toJunction="4way_69"/>
<trip id="129" depart="19.8402" fromJunction="4way_163" toJunction="4way_78"/>
<trip id="130" depart="19.994" fromJunction="3way_395" toJunction="4way_122"/>
<trip id="131" depart="20.1478" fromJunction="4way_197" toJunction="3way_7"/>
<trip id="132" depart="20.3016" fromJunction="4way_114" toJunction="4way_291"/>
<trip id="133" depart="20.455399999999997" fromJunction="4way_349" toJunction="4way_83"/>
<trip id="134" depart="20.609199999999998" fromJunction="4way_267" toJunction="3way_179"/>
<trip id="135" depart="20.762999999999998" fromJunction="4way_136" toJunction="4way_218"/>
<trip id="136" depart="20.9168" fromJunction="4way_78" toJunction="4way_164"/>
<trip id="137" depart="21.0706" fromJunction="4way_337" toJunction="4way_42"/>
<trip id="138" depart="21.2244" fromJunction="4way_234" toJunction="4way_277"/>
<trip id="139" depart="21.3782" fromJunction="4way_116" toJunction="4way_330"/>
<trip id="140" depart="21.532" fromJunction="4way_275" toJunction="4way_183"/>
<trip id="141" depart="21.6858" fromJunction="3way_6" toJunction="4way_230"/>
<trip id="142" depart="21.839599999999997" fromJunction="3way_280" toJunction="4way_244"/>
<trip id="143" depart="21.993399999999998" fromJunction="4way_207" toJunction="4way_238"/>
<trip id="144" depart="22.147199999999998" fromJunction="4way_51" toJunction="4way_347"/>
<trip id="145" depart="22.301" fromJunction="3way_360" toJunction="4way_45"/>
<trip id="146" depart="22.4548" fromJunction="4way_81" toJunction="4way_55"/>
<trip id="147" depart="22.6086" fromJunction="4way_341" toJunction="4way_108"/>
<trip id="148" depart="22.7624" fromJunction="4way_375" toJunction="3way_396"/>
<trip id="149" depart="22.9162" fromJunction="4way_78" toJunction="4way_178"/>
<trip id="150" depart="23.07" fromJunction="4way_34" toJunction="4way_356"/>
<trip id="151" depart="23.223799999999997" fromJunction="3way_319" toJunction="4way_124"/>
<trip id="152" depart="23.377599999999997" fromJunction="4way_42" toJunction="4way_365"/>
<trip id="153" depart="23.531399999999998" fromJunction="3way_99" toJunction="3way_382"/>
<trip id="154" depart="23.6852" fromJunction="3way_5" toJunction="4way_372"/>
<trip id="155" depart="23.839" fromJunction="3way_280" toJunction="4way_373"/>
<trip id="156" depart="23.9928" fromJunction="3way_379" toJunction="3way_299"/>
<trip id="157" depart="24.1466" fromJunction="4way_162" toJunction="4way_311"/>
<trip id="158" depart="24.3004" fromJunction="4way_109" toJunction="4way_106"/>
<trip id="159" depart="24.4542" fromJunction="4way_372" toJunction="4way_355"/>
<trip id="160" depart="24.607999999999997" fromJunction="3way_382" toJunction="4way_362"/>
<trip id="161" depart="24.761799999999997" fromJunction="4way_243" toJunction="3way_99"/>
<trip id="162" depart="24.915599999999998" fromJunction="4way_27" toJunction="4way_282"/>
<trip id="163" depart="25.069399999999998" fromJunction="4way_132" toJunction="4way_32"/>
<trip id="164" depart="25.2232" fromJunction="4way_145" toJunction="4way_103"/>
<trip id="165" depart="25.377" fromJunction="4way_154" toJunction="3way_20"/>
<trip id="166" depart="25.5308" fromJunction="4way_152" toJunction="3way_119"/>
<trip id="167" depart="25.6846" fromJunction="4way_54" toJunction="4way_74"/>
<trip id="168" depart="25.8384" fromJunction="4way_105" toJunction="4way_262"/>
<trip id="169" depart="25.9922" fromJunction="4way_23" toJunction="4way_349"/>
<trip id="170" depart="26.145999999999997" fromJunction="4way_141" toJunction="4way_65"/>
<trip id="171" depart="26.299799999999998" fromJunction="3way_18" toJunction="4way_67"/>
<trip id="172" depart="26.453599999999998" fromJunction="3way_279" toJunction="4way_234"/>
<trip id="173" depart="26.6074" fromJunction="4way_283" toJunction="4way_168"/>
<trip id="174" depart="26.7612" fromJunction="4way_58" toJunction="4way_269"/>
<trip id="175" depart="26.915" fromJunction="3way_15" toJunction="4way_91"/>
<trip id="176" depart="27.0688" fromJunction="4way_88" toJunction="4way_186"/>
<trip id="177" depart="27.2226" fromJunction="4way_371" toJunction="4way_308"/>
<trip id="178" depart="27.3764" fromJunction="3way_383" toJunction="4way_43"/>
<trip id="179" depart="27.530199999999997" fromJunction="4way_38" toJunction="4way_245"/>
<trip id="180" depart="27.683999999999997" fromJunction="4way_336" toJunction="4way_61"/>
<trip id="181" depart="27.837799999999998" fromJunction="4way_27" toJunction="4way_368"/>
<trip id="182" depart="27.9916" fromJunction="4way_47" toJunction="4way_176"/>
<trip id="183" depart="28.1454" fromJunction="4way_305" toJunction="4way_352"/>
<trip id="184" depart="28.2992" fromJunction="4way_92" toJunction="4way_356"/>
<trip id="185" depart="28.453" fromJunction="4way_84" toJunction="4way_172"/>
<trip id="186" depart="28.6068" fromJunction="4way_370" toJunction="4way_253"/>
<trip id="187" depart="28.7606" fromJunction="3way_180" toJunction="4way_122"/>
<trip id="188" depart="28.914399999999997" fromJunction="4way_58" toJunction="4way_214"/>
<trip id="189" depart="29.068199999999997" fromJunction="4way_30" toJunction="4way_47"/>
<trip id="190" depart="29.221999999999998" fromJunction="4way_47" toJunction="4way_335"/>
<trip id="191" depart="29.375799999999998" fromJunction="4way_249" toJunction="4way_357"/>
<trip id="192" depart="29.5296" fromJunction="4way_376" toJunction="4way_55"/>
<trip id="193" depart="29.6834" fromJunction="3way_180" toJunction="4way_354"/>
<trip id="194" depart="29.8372" fromJunction="4way_285" toJunction="4way_330"/>
<trip id="195" depart="29.991" fromJunction="4way_126" toJunction="3way_159"/>
<trip id="196" depart="30.1448" fromJunction="4way_275" toJunction="4way_262"/>
<trip id="197" depart="30.298599999999997" fromJunction="4way_58" toJunction="3way_14"/>
<trip id="198" depart="30.452399999999997" fromJunction="4way_324" toJunction="4way_304"/>
<trip id="199" depart="30.606199999999998" fromJunction="4way_41" toJunction="3way_7"/>
<trip id="200" depart="30.759999999999998" fromJunction="4way_177" toJunction="4way_305"/>
<trip id="201" depart="30.9138" fromJunction="4way_317" toJunction="3way_395"/>
<trip id="202" depart="31.0676" fromJunction="4way_366" toJunction="4way_76"/>
<trip id="203" depart="31.2214" fromJunction="4way_62" toJunction="4way_84"/>
<trip id="204" depart="31.3752" fromJunction="3way_14" toJunction="4way_210"/>
<trip id="205" depart="31.529" fromJunction="4way_166" toJunction="3way_7"/>
<trip id="206" depart="31.682799999999997" fromJunction="4way_202" toJunction="3way_199"/>
<trip id="207" depart="31.836599999999997" fromJunction="4way_222" toJunction="4way_321"/>
<trip id="208" depart="31.990399999999998" fromJunction="3way_5" toJunction="3way_383"/>
<trip id="209" depart="32.1442" fromJunction="4way_230" toJunction="3way_389"/>
<trip id="210" depart="32.298" fromJunction="4way_318" toJunction="4way_178"/>
<trip id="211" depart="32.4518" fromJunction="3way_160" toJunction="4way_365"/>
<trip id="212" depart="32.605599999999995" fromJunction="4way_307" toJunction="4way_31"/>
<trip id="213" depart="32.7594" fromJunction="3way_179" toJunction="4way_298"/>
<trip id="214" depart="32.913199999999996" fromJunction="4way_143" toJunction="4way_114"/>
<trip id="215" depart="33.067" fromJunction="4way_231" toJunction="4way_122"/>
<trip id="216" depart="33.2208" fromJunction="4way_251" toJunction="4way_162"/>
<trip id="217" depart="33.3746" fromJunction="4way_126" toJunction="4way_148"/>
<trip id="218" depart="33.5284" fromJunction="4way_123" toJunction="4way_89"/>
<trip id="219" depart="33.6822" fromJunction="4way_66" toJunction="4way_212"/>
<trip id="220" depart="33.836" fromJunction="4way_115" toJunction="4way_344"/>
<trip id="221" depart="33.989799999999995" fromJunction="3way_39" toJunction="4way_157"/>
<trip id="222" depart="34.1436" fromJunction="4way_264" toJunction="4way_62"/>
<trip id="223" depart="34.297399999999996" fromJunction="4way_278" toJunction="4way_354"/>
<trip id="224" depart="34.4512" fromJunction="4way_356" toJunction="4way_138"/>
<trip id="225" depart="34.605" fromJunction="4way_318" toJunction="4way_203"/>
<trip id="226" depart="34.7588" fromJunction="3way_393" toJunction="4way_182"/>
<trip id="227" depart="34.9126" fromJunction="4way_62" toJunction="4way_357"/>
<trip id="228" depart="35.0664" fromJunction="3way_139" toJunction="4way_92"/>
<trip id="229" depart="35.2202" fromJunction="4way_176" toJunction="4way_53"/>
<trip id="230" depart="35.373999999999995" fromJunction="4way_145" toJunction="4way_362"/>
<trip id="231" depart="35.5278" fromJunction="4way_193" toJunction="4way_105"/>
<trip id="232" depart="35.681599999999996" fromJunction="3way_80" toJunction="4way_102"/>
<trip id="233" depart="35.8354" fromJunction="4way_263" toJunction="4way_326"/>
<trip id="234" depart="35.9892" fromJunction="4way_102" toJunction="4way_195"/>
<trip id="235" depart="36.143" fromJunction="4way_297" toJunction="4way_28"/>
<trip id="236" depart="36.2968" fromJunction="4way_56" toJunction="4way_370"/>
<trip id="237" depart="36.4506" fromJunction="4way_213" toJunction="4way_277"/>
<trip id="238" depart="36.6044" fromJunction="4way_138" toJunction="4way_172"/>
<trip id="239" depart="36.758199999999995" fromJunction="4way_346" toJunction="4way_338"/>
<trip id="240" depart="36.912" fromJunction="4way_163" toJunction="3way_239"/>
<trip id="241" depart="37.065799999999996" fromJunction="4way_86" toJunction="3way_240"/>
<trip id="242" depart="37.2196" fromJunction="4way_130" toJunction="3way_383"/>
<trip id="243" depart="37.3734" fromJunction="4way_276" toJunction="4way_165"/>
<trip id="244" depart="37.5272" fromJunction="4way_29" toJunction="4way_138"/>
<trip id="245" depart="37.681" fromJunction="4way_30" toJunction="4way_23"/>
<trip id="246" depart="37.8348" fromJunction="4way_365" toJunction="4way_296"/>
<trip id="247" depart="37.9886" fromJunction="4way_362" toJunction="4way_69"/>
<trip id="248" depart="38.142399999999995" fromJunction="4way_325" toJunction="4way_27"/>
<trip id="249" depart="38.2962" fromJunction="4way_68" toJunction="4way_182"/>
<trip id="250" depart="38.449999999999996" fromJunction="4way_85" toJunction="4way_303"/>
<trip id="251" depart="38.6038" fromJunction="4way_213" toJunction="4way_208"/>
<trip id="252" depart="38.7576" fromJunction="4way_137" toJunction="4way_144"/>
<trip id="253" depart="38.9114" fromJunction="3way_59" toJunction="4way_375"/>
<trip id="254" depart="39.0652" fromJunction="4way_306" toJunction="4way_222"/>
<trip id="255" depart="39.219" fromJunction="4way_244" toJunction="3way_393"/>
<trip id="256" depart="39.3728" fromJunction="4way_371" toJunction="4way_133"/>
<trip id="257" depart="39.526599999999995" fromJunction="4way_252" toJunction="4way_270"/>
<trip id="258" depart="39.6804" fromJunction="4way_204" toJunction="4way_201"/>
<trip id="259" depart="39.834199999999996" fromJunction="4way_156" toJunction="4way_331"/>
<trip id="260" depart="39.988" fromJunction="4way_83" toJunction="4way_368"/>
<trip id="261" depart="40.141799999999996" fromJunction="4way_252" toJunction="3way_12"/>
<trip id="262" depart="40.2956" fromJunction="4way_85" toJunction="3way_4"/>
<trip id="263" depart="40.4494" fromJunction="4way_137" toJunction="4way_268"/>
<trip id="264" depart="40.6032" fromJunction="4way_345" toJunction="3way_379"/>
<trip id="265" depart="40.757" fromJunction="4way_204" toJunction="3way_10"/>
<trip id="266" depart="40.910799999999995" fromJunction="4way_63" toJunction="4way_270"/>
<trip id="267" depart="41.0646" fromJunction="3way_389" toJunction="4way_241"/>
<trip id="268" depart="41.218399999999995" fromJunction="4way_132" toJunction="4way_269"/>
<trip id="269" depart="41.3722" fromJunction="4way_337" toJunction="4way_311"/>
<trip id="270" depart="41.525999999999996" fromJunction="4way_111" toJunction="3way_2"/>
<trip id="271" depart="41.6798" fromJunction="4way_369" toJunction="4way_90"/>
<trip id="272" depart="41.8336" fromJunction="3way_7" toJunction="4way_98"/>
<trip id="273" depart="41.9874" fromJunction="4way_354" toJunction="4way_132"/>
<trip id="274" depart="42.1412" fromJunction="4way_144" toJunction="4way_88"/>
<trip id="275" depart="42.294999999999995" fromJunction="3way_396" toJunction="4way_174"/>
<trip id="276" depart="42.4488" fromJunction="4way_168" toJunction="4way_286"/>
<trip id="277" depart="42.602599999999995" fromJunction="3way_379" toJunction="4way_112"/>
<trip id="278" depart="42.7564" fromJunction="4way_26" toJunction="4way_22"/>
<trip id="279" depart="42.910199999999996" fromJunction="4way_216" toJunction="4way_270"/>
<trip id="280" depart="43.064" fromJunction="3way_382" toJunction="4way_250"/>
<trip id="281" depart="43.2178" fromJunction="4way_96" toJunction="4way_238"/>
<trip id="282" depart="43.3716" fromJunction="4way_137" toJunction="4way_48"/>
<trip id="283" depart="43.5254" fromJunction="4way_137" toJunction="4way_348"/>
<trip id="284" depart="43.679199999999994" fromJunction="4way_138" toJunction="4way_115"/>
<trip id="285" depart="43.833" fromJunction="3way_15" toJunction="4way_117"/>
<trip id="286" depart="43.986799999999995" fromJunction="4way_225" toJunction="3way_60"/>
<trip id="287" depart="44.1406" fromJunction="4way_223" toJunction="4way_377"/>
<trip id="288" depart="44.294399999999996" fromJunction="4way_196" toJunction="3way_180"/>
<trip id="289" depart="44.4482" fromJunction="4way_376" toJunction="4way_306"/>
<trip id="290" depart="44.602" fromJunction="4way_211" toJunction="3way_180"/>
<trip id="291" depart="44.7558" fromJunction="3way_279" toJunction="4way_266"/>
<trip id="292" depart="44.9096" fromJunction="4way_162" toJunction="4way_132"/>
<trip id="293" depart="45.063399999999994" fromJunction="3way_139" toJunction="3way_16"/>
<trip id="294" depart="45.2172" fromJunction="4way_376" toJunction="3way_159"/>
<trip id="295" depart="45.370999999999995" fromJunction="4way_296" toJunction="4way_113"/>
<trip id="296" depart="45.5248" fromJunction="4way_248" toJunction="4way_311"/>
<trip id="297" depart="45.678599999999996" fromJunction="4way_378" toJunction="4way_263"/>
<trip id="298" depart="45.8324" fromJunction="4way_147" toJunction="4way_364"/>
<trip id="299" depart="45.9862" fromJunction="4way_218" toJunction="4way_125"/>
<trip id="300" depart="46.14" fromJunction="4way_84" toJunction="3way_60"/>
<trip id="301" depart="46.2938" fromJunction="3way_179" toJunction="4way_371"/>
<trip id="302" depart="46.447599999999994" fromJunction="4way_207" toJunction="4way_150"/>
<trip id="303" depart="46.6014" fromJunction="4way_102" toJunction="4way_103"/>
<trip id="304" depart="46.755199999999995" fromJunction="4way_45" toJunction="4way_128"/>
<trip id="305" depart="46.909" fromJunction="4way_164" toJunction="4way_27"/>
<trip id="306" depart="47.062799999999996" fromJunction="3way_382" toJunction="4way_158"/>
<trip id="307" depart="47.2166" fromJunction="4way_204" toJunction="3way_396"/>
<trip id="308" depart="47.3704" fromJunction="4way_211" toJunction="4way_30"/>
<trip id="309" depart="47.5242" fromJunction="4way_378" toJunction="4way_285"/>
<trip id="310" depart="47.678" fromJunction="4way_332" toJunction="4way_284"/>
<trip id="311" depart="47.831799999999994" fromJunction="4way_334" toJunction="4way_31"/>
<trip id="312" depart="47.9856" fromJunction="4way_236" toJunction="4way_198"/>
<trip id="313" depart="48.139399999999995" fromJunction="4way_152" toJunction="4way_313"/>
<trip id="314" depart="48.2932" fromJunction="3way_280" toJunction="4way_144"/>
<trip id="315" depart="48.446999999999996" fromJunction="4way_122" toJunction="3way_159"/>
<trip id="316" depart="48.6008" fromJunction="4way_188" toJunction="4way_206"/>
<trip id="317" depart="48.754599999999996" fromJunction="4way_58" toJunction="4way_34"/>
<trip id="318" depart="48.9084" fromJunction="3way_392" toJunction="3way_388"/>
<trip id="319" depart="49.0622" fromJunction="4way_173" toJunction="4way_369"/>
<trip id="320" depart="49.215999999999994" fromJunction="4way_237" toJunction="4way_255"/>
<trip id="321" depart="49.3698" fromJunction="4way_305" toJunction="4way_258"/>
<trip id="322" depart="49.523599999999995" fromJunction="3way_280" toJunction="4way_145"/>
<trip id="323" depart="49.6774" fromJunction="4way_191" toJunction="4way_52"/>
<trip id="324" depart="49.831199999999995" fromJunction="3way_396" toJunction="4way_375"/>
<trip id="325" depart="49.985" fromJunction="4way_309" toJunction="4way_367"/>
<trip id="326" depart="50.138799999999996" fromJunction="3way_120" toJunction="4way_122"/>
<trip id="327" depart="50.2926" fromJunction="3way_139" toJunction="4way_355"/>
<trip id="328" depart="50.4464" fromJunction="3way_389" toJunction="4way_147"/>
<trip id="329" depart="50.6002" fromJunction="4way_238" toJunction="4way_27"/>
<trip id="330" depart="50.754" fromJunction="4way_335" toJunction="4way_126"/>
<trip id="331" depart="50.907799999999995" fromJunction="4way_362" toJunction="3way_388"/>
<trip id="332" depart="51.0616" fromJunction="4way_305" toJunction="4way_325"/>
<trip id="333" depart="51.215399999999995" fromJunction="4way_224" toJunction="4way_291"/>
<trip id="334" depart="51.3692" fromJunction="4way_51" toJunction="4way_272"/>
<trip id="335" depart="51.522999999999996" fromJunction="4way_186" toJunction="4way_305"/>
<trip id="336" depart="51.6768" fromJunction="3way_219" toJunction="4way_210"/>
<trip id="337" depart="51.8306" fromJunction="4way_151" toJunction="4way_55"/>
<trip id="338" depart="51.9844" fromJunction="4way_308" toJunction="4way_372"/>
<trip id="339" depart="52.1382" fromJunction="4way_345" toJunction="3way_391"/>
<trip id="340" depart="52.291999999999994" fromJunction="4way_44" toJunction="4way_345"/>
<trip id="341" depart="52.4458" fromJunction="4way_93" toJunction="3way_12"/>
<trip id="342" depart="52.599599999999995" fromJunction="4way_150" toJunction="3way_391"/>
<trip id="343" depart="52.7534" fromJunction="4way_370" toJunction="4way_192"/>
<trip id="344" depart="52.907199999999996" fromJunction="3way_394" toJunction="4way_58"/>
<trip id="345" depart="53.061" fromJunction="3way_12" toJunction="4way_56"/>
<trip id="346" depart="53.2148" fromJunction="4way_345" toJunction="4way_288"/>
<trip id="347" depart="53.3686" fromJunction="4way_25" toJunction="4way_208"/>
<trip id="348" depart="53.5224" fromJunction="3way_8" toJunction="4way_81"/>
<trip id="349" depart="53.676199999999994" fromJunction="4way_215" toJunction="4way_168"/>
<trip id="350" depart="53.83" fromJunction="4way_341" toJunction="4way_85"/>
<trip id="351" depart="53.983799999999995" fromJunction="3way_339" toJunction="3way_299"/>
<trip id="352" depart="54.1376" fromJunction="3way_395" toJunction="4way_321"/>
<trip id="353" depart="54.291399999999996" fromJunction="3way_199" toJunction="4way_302"/>
<trip id="354" depart="54.4452" fromJunction="4way_335" toJunction="3way_179"/>
<trip id="355" depart="54.599" fromJunction="4way_129" toJunction="3way_160"/>
<trip id="356" depart="54.7528" fromJunction="4way_27" toJunction="4way_34"/>
<trip id="357" depart="54.9066" fromJunction="4way_161" toJunction="3way_240"/>
<trip id="358" depart="55.060399999999994" fromJunction="4way_248" toJunction="4way_206"/>
<trip id="359" depart="55.2142" fromJunction="4way_94" toJunction="4way_264"/>
<trip id="360" depart="55.367999999999995" fromJunction="4way_177" toJunction="4way_213"/>