<routes xmlns:xsi="http://www.w3.org/2001/XMLSchema-instance" xsi:noNamespaceSchemaLocation="http://sumo.dlr.de/xsd/routes_file.xsd">
<trip id="0" depart="0.0" fromJunction="4way_20" toJunction="4way_13"/>
<trip id="1" depart="0.3921" fromJunction="4way_13" toJunction="4way_25"/>
<trip id="2" depart="0.7842" fromJunction="4way_8" toJunction="3way_18"/>
<trip id="3" depart="1.1763" fromJunction="4way_10" toJunction="3way_12"/>
<trip id="4" depart="1.5684" fromJunction="3way_24" toJunction="4way_22"/>
<trip id="5" depart="1.9605000000000001" fromJunction="4way_7" toJunction="4way_15"/>
<trip id="6" depart="2.3526" fromJunction="4way_16" toJunction="4way_19"/>
<trip id="7" depart="2.7447" fromJunction="4way_21" toJunction="3way_1"/>
<trip id="8" depart="3.1368" fromJunction="4way_27" toJunction="4way_9"/>
<trip id="9" depart="3.5289" fromJunction="4way_15" toJunction="4way_28"/>
<trip id="10" depart="3.9210000000000003" fromJunction="4way_9" toJunction="3way_12"/>
<trip id="11" depart="4.3131" fromJunction="4way_8" toJunction="3way_4"/>
<trip id="12" depart="4.7052" fromJunction="4way_22" toJunction="3way_11"/>
<trip id="13" depart="5.0973" fromJunction="3way_18" toJunction="4way_7"/>
<trip id="14" depart="5.4894" fromJunction="4way_9" toJunction="3way_34"/>
<trip id="15" depart="5.8815" fromJunction="4way_19" toJunction="3way_12"/>
<trip id="16" depart="6.2736" fromJunction="4way_25" toJunction="3way_1"/>
<trip id="17" depart="6.6657" fromJunction="4way_14" toJunction="4way_22"/>
<trip id="18" depart="7.0578" fromJunction="3way_18" toJunction="3way_31"/>
<trip id="19" depart="7.4499" fromJunction="3way_2" toJunction="4way_20"/>
<trip id="20" depart="7.8420000000000005" fromJunction="3way_11" toJunction="3way_23"/>
<trip id="21" depart="8.2341" fromJunction="3way_31" toJunction="3way_32"/>
<trip id="22" depart="8.6262" fromJunction="3way_12" toJunction="4way_19"/>
<trip id="23" depart="9.0183" fromJunction="3way_4" toJunction="4way_28"/>
<trip id="24" depart="9.4104" fromJunction="3way_17" toJunction="3way_23"/>
<trip id="25" depart="9.8025" fromJunction="3way_34" toJunction="4way_8"/>
<trip id="26" depart="10.1946" fromJunction="3way_29" toJunction="3way_12"/>
<trip id="27" depart="10.5867" fromJunction="3way_4" toJunction="3way_17"/>
<trip id="28" depart="10.9788" fromJunction="3way_11" toJunction="4way_14"/>
<trip id="29" depart="11.3709" fromJunction="3way_31" toJunction="3way_23"/>
<trip id="30" depart="11.763" fromJunction="3way_4" toJunction="4way_21"/>
<trip id="31" depart="12.155100000000001" fromJunction="3way_4" toJunction="4way_21"/>
<trip id="32" depart="12.5472" fromJunction="3way_12" toJunction="4way_28"/>
<trip id="33" depart="12.9393" fromJunction="4way_25" toJunction="4way_28"/>
<trip id="34" depart="13.3314" fromJunction="3way_2" toJunction="4way_26"/>
<trip id="35" depart="13.7235" fromJunction="3way_4" toJunction="3way_33"/>
<trip id="36" depart="14.1156" fromJunction="3way_4" toJunction="3way_33"/>
<trip id="37" depart="14.5077" fromJunction="3way_18" toJunction="3way_32"/>
<trip id="38" depart="14.8998" fromJunction="4way_20" toJunction="3way_3"/>
<trip id="39" depart="15.2919" fromJunction="3way_34" toJunction="4way_19"/>
<trip id="40" depart="15.684000000000001" fromJunction="3way_4" toJunction="4way_7"/>
<trip id="41" depart="16.0761" fromJunction="4way_16" toJunction="4way_19"/>
<trip id="42" depart="16.4682" fromJunction="4way_14" toJunction="3way_32"/>
<trip id="43" depart="16.8603" fromJunction="4way_20" toJunction="3way_11"/>
<trip id="44" depart="17.2524" fromJunction="3way_17" toJunction="3way_33"/>
<trip id="45" depart="17.6445" fromJunction="3way_1" toJunction="4way_19"/>
<trip id="46" depart="18.0366" fromJunction="3way_1" toJunction="4way_21"/>
<trip id="47" depart="18.4287" fromJunction="3way_34" toJunction="4way_14"/>
<trip id="48" depart="18.8208" fromJunction="4way_22" toJunction="4way_26"/>
<trip id="49" depart="19.2129" fromJunction="4way_19" toJunction="3way_29"/>
<trip id="50" depart="19.605" fromJunction="4way_22" toJunction="3way_29"/>
<trip id="51" depart="19.9971" fromJunction="4way_27" toJunction="3way_12"/>
<trip id="52" depart="20.3892" fromJunction="3way_33" toJunction="4way_20"/>
<trip id="53" depart="20.7813" fromJunction="3way_24" toJunction="4way_21"/>
<trip id="54" depart="21.1734" fromJunction="4way_19" toJunction="4way_10"/>
<trip id="55" depart="21.5655" fromJunction="4way_20" toJunction="4way_10"/>
<trip id="56" depart="21.9576" fromJunction="4way_7" toJunction="4way_26"/>
<trip id="57" depart="22.3497" fromJunction="4way_8" toJunction="4way_22"/>
<trip id="58" depart="22.7418" fromJunction="4way_25" toJunction="3way_18"/>
<trip id="59" depart="23.1339" fromJunction="3way_33" toJunction="3way_1"/>
<trip id="60" depart="23.526" fromJunction="3way_33" toJunction="4way_14"/>
<trip id="61" depart="23.9181" fromJunction="3way_18" toJunction="4way_25"/>
<trip id="62" depart="24.310200000000002" fromJunction="3way_33" toJunction="3way_11"/>
<trip id="63" depart="24.7023" fromJunction="4way_8" toJunction="4way_19"/>
<trip id="64" depart="25.0944" fromJunction="3way_18" toJunction="4way_8"/>
<trip id="65" depart="25.4865" fromJunction="3way_31" toJunction="4way_10"/>
<trip id="66" depart="25.8786" fromJunction="4way_10" toJunction="3way_18"/>
<trip id="67" depart="26.2707" fromJunction="4way_20" toJunction="4way_15"/>
<trip id="68" depart="26.6628" fromJunction="4way_16" toJunction="3way_4"/>
<trip id="69" depart="27.0549" fromJunction="4way_28" toJunction="4way_20"/>
<trip id="70" depart="27.447" fromJunction="4way_27" toJunction="3way_11"/>
<trip id="71" depart="27.839100000000002" fromJunction="4way_25" toJunction="3way_17"/>
<trip id="72" depart="28.2312" fromJunction="4way_27" toJunction="3way_4"/>
<trip id="73" depart="28.6233" fromJunction="4way_19" toJunction="4way_15"/>
<trip id="74" depart="29.0154" fromJunction="3way_3" toJunction="3way_18"/>
<trip id="75" depart="29.4075" fromJunction="3way_12" toJunction="4way_20"/>
<trip id="76" depart="29.7996" fromJunction="4way_27" toJunction="4way_26"/>
<trip id="77" depart="30.1917" fromJunction="4way_27" toJunction="4way_28"/>
<trip id="78" depart="30.5838" fromJunction="3way_31" toJunction="3way_1"/>
<trip id="79" depart="30.9759" fromJunction="3way_17" toJunction="4way_26"/>
<trip id="80" depart="31.368000000000002" fromJunction="3way_2" toJunction="4way_7"/>
<trip id="81" depart="31.7601" fromJunction="3way_1" toJunction="3way_23"/>
<trip id="82" depart="32.1522" fromJunction="3way_29" toJunction="4way_15"/>
<trip id="83" depart="32.5443" fromJunction="4way_16" toJunction="3way_31"/>
<trip id="84" depart="32.9364" fromJunction="3way_2" toJunction="4way_20"/>
<trip id="85" depart="33.3285" fromJunction="4way_25" toJunction="3way_17"/>
<trip id="86" depart="33.7206" fromJunction="3way_29" toJunction="4way_19"/>
<trip id="87" depart="34.112700000000004" fromJunction="4way_25" toJunction="4way_16"/>
<trip id="88" depart="34.5048" fromJunction="4way_19" toJunction="4way_13"/>
<trip id="89" depart="34.8969" fromJunction="3way_33" toJunction="4way_26"/>
<trip id="90" depart="35.289" fromJunction="3way_23" toJunction="3way_24"/>
<trip id="91" depart="35.6811" fromJunction="4way_22" toJunction="3way_17"/>
<trip id="92" depart="36.0732" fromJunction="3way_6" toJunction="4way_26"/>
<trip id="93" depart="36.4653" fromJunction="3way_34" toJunction="3way_29"/>
<trip id="94" depart="36.8574" fromJunction="3way_18" toJunction="3way_2"/>
<trip id="95" depart="37.2495" fromJunction="4way_20" toJunction="3way_33"/>
<trip id="96" depart="37.6416" fromJunction="3way_17" toJunction="3way_24"/>
<trip id="97" depart="38.0337" fromJunction="3way_3" toJunction="3way_1"/>
<trip id="98" depart="38.4258" fromJunction="3way_12" toJunction="4way_14"/>
<trip id="99" depart="38.8179" fromJunction="4way_10" toJunction="4way_13"/>
<trip id="100" depart="39.21" fromJunction="3way_23" toJunction="4way_28"/>
<trip id="101" depart="39.6021" fromJunction="3way_34" toJunction="4way_14"/>
<trip id="102" depart="39.9942" fromJunction="4way_9" toJunction="3way_1"/>
<trip id="103" depart="40.3863" fromJunction="3way_24" toJunction="3way_32"/>
<trip id="104" depart="40.7784" fromJunction="4way_21" toJunction="4way_19"/>
<trip id="105" depart="41.1705" fromJunction="4way_27" toJunction="4way_8"/>
<trip id="106" depart="41.5626" fromJunction="4way_15" toJunction="3way_34"/>
<trip id="107" depart="41.9547" fromJunction="4way_22" toJunction="3way_17"/>
<trip id="108" depart="42.3468" fromJunction="3way_23" toJunction="4way_14"/>
<trip id="109" depart="42.7389" fromJunction="4way_26" toJunction="4way_22"/>
<trip id="110" depart="43.131" fromJunction="3way_23" toJunction="3way_34"/>
<trip id="111" depart="43.5231" fromJunction="3way_1" toJunction="4way_7"/>
<trip id="112" depart="43.9152" fromJunction="3way_18" toJunction="3way_23"/>
<trip id="113" depart="44.3073" fromJunction="3way_12" toJunction="3way_31"/>
<trip id="114" depart="44.6994" fromJunction="4way_19" toJunction="3way_34"/>
<trip id="115" depart="45.0915" fromJunction="3way_4" toJunction="4way_27"/>
<trip id="116" depart="45.4836" fromJunction="3way_11" toJunction="4way_7"/>
<trip id="117" depart="45.8757" fromJunction="3way_24" toJunction="4way_20"/>
<trip id="118" depart="46.2678" fromJunction="3way_17" toJunction="4way_19"/>
<trip id="119" depart="46.6599" fromJunction="3way_6" toJunction="3way_11"/>
<trip id="120" depart="47.052" fromJunction="4way_22" toJunction="3way_31"/>
<trip id="121" depart="47.4441" fromJunction="4way_26" toJunction="4way_9"/>
<trip id="122" depart="47.8362" fromJunction="3way_3" toJunction="4way_10"/>
<trip id="123" depart="48.2283" fromJunction="4way_19" toJunction="4way_13"/>
<trip id="124" depart="48.620400000000004" fromJunction="3way_33" toJunction="4way_22"/>
<trip id="125" depart="49.0125" fromJunction="3way_4" toJunction="3way_29"/>
<trip id="126" depart="49.4046" fromJunction="4way_16" toJunction="3way_1"/>
<trip id="127" depart="49.7967" fromJunction="4way_15" toJunction="4way_14"/>
<trip id="128" depart="50.1888" fromJunction="4way_19" toJunction="3way_33"/>
<trip id="129" depart="50.5809" fromJunction="3way_6" toJunction="3way_3"/>
<trip id="130" depart="50.973" fromJunction="4way_10" toJunction="4way_28"/>
<trip id="131" depart="51.3651" fromJunction="4way_22" toJunction="3way_32"/>
<trip id="132" depart="51.7572" fromJunction="4way_22" toJunction="3way_29"/>
<trip id="133" depart="52.149300000000004" fromJunction="4way_15" toJunction="4way_22"/>
<trip id="134" depart="52.5414" fromJunction="4way_27" toJunction="4way_8"/>
<trip id="135" depart="52.9335" fromJunction="4way_27" toJunction="3way_33"/>
<trip id="136" depart="53.3256" fromJunction="3way_1" toJunction="4way_25"/>
<trip id="137" depart="53.7177" fromJunction="3way_11" toJunction="3way_31"/>
<trip id="138" depart="54.1098" fromJunction="3way_6" toJunction="4way_28"/>
<trip id="139" depart="54.5019" fromJunction="4way_8" toJunction="3way_6"/>
<trip id="140" depart="54.894" fromJunction="3way_11" toJunction="3way_31"/>
<trip id="141" depart="55.2861" fromJunction="3way_23" toJunction="4way_21"/>
<trip id="142" depart="55.678200000000004" fromJunction="3way_29" toJunction="4way_7"/>
<trip id="143" depart="56.0703" fromJunction="4way_27" toJunction="3way_4"/>
<trip id="144" depart="56.4624" fromJunction="4way_22" toJunction="4way_28"/>
<trip id="145" depart="56.8545" fromJunction="4way_9" toJunction="4way_16"/>
<trip id="146" depart="57.2466" fromJunction="3way_3" toJunction="3way_32"/>
<trip id="147" depart="57.6387" fromJunction="3way_29" toJunction="3way_18"/>
<trip id="148" depart="58.0308" fromJunction="3way_2" toJunction="3way_11"/>
<trip id="149" depart="58.4229" fromJunction="3way_1" toJunction="4way_26"/>
<trip id="150" depart="58.815" fromJunction="3way_11" toJunction="4way_9"/>
<trip id="151" depart="59.207100000000004" fromJunction="3way_29" toJunction="4way_14"/>
<trip id="152" depart="59.5992" fromJunction="4way_13" toJunction="3way_18"/>
<trip id="153" depart="59.9913" fromJunction="4way_26" toJunction="4way_27"/>
<trip id="154" depart="60.3834" fromJunction="3way_11" toJunction="3way_34"/>
<trip id="155" depart="60.7755" fromJunction="3way_33" toJunction="3way_2"/>
<trip id="156" depart="61.1676" fromJunction="3way_12" toJunction="3way_34"/>
<trip id="157" depart="61.5597" fromJunction="4way_20" toJunction="4way_14"/>
<trip id="158" depart="61.9518" fromJunction="3way_24" toJunction="3way_33"/>
<trip id="159" depart="62.3439" fromJunction="4way_15" toJunction="3way_17"/>
<trip id="160" depart="62.736000000000004" fromJunction="4way_20" toJunction="3way_2"/>
<trip id="161" depart="63.1281" fromJunction="3way_31" toJunction="3way_34"/>
<trip id="162" depart="63.5202" fromJunction="3way_34" toJunction="4way_19"/>
<trip id="163" depart="63.9123" fromJunction="3way_23" toJunction="3way_31"/>
<trip id="164" depart="64.3044" fromJunction="3way_2" toJunction="3way_12"/>
<trip id="165" depart="64.6965" fromJunction="3way_3" toJunction="4way_15"/>
<trip id="166" depart="65.0886" fromJunction="3way_33" toJunction="4way_7"/>
<trip id="167" depart="65.4807" fromJunction="4way_22" toJunction="4way_19"/>
<trip id="168" depart="65.8728" fromJunction="3way_2" toJunction="4way_8"/>
<trip id="169" depart="66.2649" fromJunction="4way_7" toJunction="3way_18"/>
<trip id="170" depart="66.657" fromJunction="4way_14" toJunction="4way_13"/>
<trip id="171" depart="67.0491" fromJunction="3way_11" toJunction="3way_34"/>
<trip id="172" depart="67.4412" fromJunction="4way_22" toJunction="3way_24"/>
<trip id="173" depart="67.8333" fromJunction="4way_10" toJunction="3way_17"/>
<trip id="174" depart="68.22540000000001" fromJunction="3way_12" toJunction="4way_13"/>
<trip id="175" depart="68.6175" fromJunction="3way_12" toJunction="4way_10"/>
<trip id="176" depart="69.0096" fromJunction="3way_24" toJunction="4way_26"/>
<trip id="177" depart="69.4017" fromJunction="4way_20" toJunction="4way_10"/>
<trip id="178" depart="69.7938" fromJunction="3way_32" toJunction="4way_20"/>
<trip id="179" depart="70.1859" fromJunction="4way_8" toJunction="4way_9"/>
<trip id="180" depart="70.578" fromJunction="3way_17" toJunction="3way_29"/>
<trip id="181" depart="70.9701" fromJunction="4way_22" toJunction="4way_15"/>
<trip id="182" depart="71.3622" fromJunction="4way_19" toJunction="3way_12"/>
<trip id="183" depart="71.7543" fromJunction="3way_12" toJunction="4way_27"/>
<trip id="184" depart="72.1464" fromJunction="4way_19" toJunction="4way_22"/>
<trip id="185" depart="72.5385" fromJunction="4way_16" toJunction="4way_21"/>
<trip id="186" depart="72.9306" fromJunction="3way_17" toJunction="4way_21"/>
<trip id="187" depart="73.3227" fromJunction="3way_24" toJunction="4way_8"/>
<trip id="188" depart="73.7148" fromJunction="3way_18" toJunction="3way_3"/>
<trip id="189" depart="74.1069" fromJunction="4way_27" toJunction="3way_34"/>
<trip id="190" depart="74.499" fromJunction="4way_22" toJunction="3way_2"/>
<trip id="191" depart="74.8911" fromJunction="3way_17" toJunction="3way_1"/>
<trip id="192" depart="75.2832" fromJunction="4way_16" toJunction="3way_24"/>
<trip id="193" depart="75.67530000000001" fromJunction="4way_22" toJunction="3way_4"/>
<trip id="194" depart="76.0674" fromJunction="3way_12" toJunction="4way_27"/>
<trip id="195" depart="76.4595" fromJunction="3way_29" toJunction="3way_32"/>
<trip id="196" depart="76.8516" fromJunction="3way_2" toJunction="4way_25"/>
<trip id="197" depart="77.2437" fromJunction="3way_18" toJunction="3way_1"/>
<trip id="198" depart="77.6358" fromJunction="3way_34" toJunction="3way_3"/>
<trip id="199" depart="78.0279" fromJunction="3way_34" toJunction="3way_29"/>
<trip id="200" depart="78.42" fromJunction="3way_1" toJunction="3way_11"/>
<trip id="201" depart="78.8121" fromJunction="4way_25" toJunction="3way_4"/>
<trip id="202" depart="79.2042" fromJunction="3way_17" toJunction="3way_18"/>
<trip id="203" depart="79.5963" fromJunction="3way_6" toJunction="4way_8"/>
<trip id="204" depart="79.9884" fromJunction="3way_3" toJunction="4way_28"/>
<trip id="205" depart="80.3805" fromJunction="3way_33" toJunction="4way_15"/>
<trip id="206" depart="80.7726" fromJunction="4way_14" toJunction="3way_29"/>
<trip id="207" depart="81.1647" fromJunction="4way_14" toJunction="3way_29"/>
<trip id="208" depart="81.5568" fromJunction="3way_18" toJunction="4way_7"/>
<trip id="209" depart="81.9489" fromJunction="3way_33" toJunction="4way_13"/>
<trip id="210" depart="82.341" fromJunction="3way_18" toJunction="4way_20"/>
<trip id="211" depart="82.73310000000001" fromJunction="4way_21" toJunction="3way_31"/>
<trip id="212" depart="83.1252" fromJunction="3way_2" toJunction="4way_16"/>
<trip id="213" depart="83.5173" fromJunction="3way_31" toJunction="3way_29"/>
<trip id="214" depart="83.9094" fromJunction="4way_28" toJunction="4way_21"/>
<trip id="215" depart="84.3015" fromJunction="4way_10" toJunction="4way_28"/>
<trip id="216" depart="84.6936" fromJunction="4way_28" toJunction="3way_33"/>
<trip id="217" depart="85.0857" fromJunction="3way_4" toJunction="3way_29"/>
<trip id="218" depart="85.4778" fromJunction="3way_29" toJunction="4way_22"/>
<trip id="219" depart="85.8699" fromJunction="3way_2" toJunction="4way_20"/>
<trip id="220" depart="86.262" fromJunction="4way_10" toJunction="4way_26"/>
<trip id="221" depart="86.6541" fromJunction="3way_24" toJunction="3way_34"/>
<trip id="222" depart="87.0462" fromJunction="4way_26" toJunction="3way_31"/>
<trip id="223" depart="87.4383" fromJunction="3way_17" toJunction="3way_29"/>
<trip id="224" depart="87.8304" fromJunction="3way_33" toJunction="3way_12"/>
<trip id="225" depart="88.2225" fromJunction="3way_29" toJunction="4way_21"/>
<trip id="226" depart="88.6146" fromJunction="4way_22" toJunction="4way_7"/>
<trip id="227" depart="89.0067" fromJunction="4way_27" toJunction="4way_8"/>
<trip id="228" depart="89.3988" fromJunction="4way_9" toJunction="4way_22"/>
<trip id="229" depart="89.79090000000001" fromJunction="4way_22" toJunction="4way_20"/>
<trip id="230" depart="90.183" fromJunction="3way_12" toJunction="4way_28"/>
<trip id="231" depart="90.5751" fromJunction="3way_33" toJunction="3way_3"/>
<trip id="232" depart="90.9672" fromJunction="3way_18" toJunction="3way_11"/>
<trip id="233" depart="91.3593" fromJunction="4way_25" toJunction="3way_11"/>
<trip id="234" depart="91.7514" fromJunction="4way_10" toJunction="3way_24"/>
<trip id="235" depart="92.1435" fromJunction="4way_13" toJunction="4way_22"/>
<trip id="236" depart="92.5356" fromJunction="4way_19" toJunction="3way_34"/>
<trip id="237" depart="92.9277" fromJunction="3way_18" toJunction="4way_10"/>
<trip id="238" depart="93.3198" fromJunction="3way_34" toJunction="4way_13"/>
<trip id="239" depart="93.7119" fromJunction="3way_24" toJunction="3way_12"/>
<trip id="240" depart="94.104" fromJunction="4way_7" toJunction="3way_29"/>
<trip id="241" depart="94.4961" fromJunction="3way_31" toJunction="3way_33"/>
<trip id="242" depart="94.8882" fromJunction="4way_9" toJunction="4way_7"/>
<trip id="243" depart="95.2803" fromJunction="4way_16" toJunction="3way_32"/>
<trip id="244" depart="95.6724" fromJunction="3way_2" toJunction="4way_27"/>
<trip id="245" depart="96.0645" fromJunction="3way_12" toJunction="3way_34"/>
<trip id="246" depart="96.4566" fromJunction="3way_31" toJunction="3way_4"/>
<trip id="247" depart="96.84870000000001" fromJunction="4way_14" toJunction="4way_26"/>
<trip id="248" depart="97.24080000000001" fromJunction="4way_20" toJunction="4way_25"/>
<trip id="249" depart="97.6329" fromJunction="3way_32" toJunction="3way_23"/>
<trip id="250" depart="98.025" fromJunction="4way_10" toJunction="4way_14"/>
<trip id="251" depart="98.4171" fromJunction="3way_33" toJunction="4way_13"/>
<trip id="252" depart="98.8092" fromJunction="4way_20" toJunction="3way_1"/>
<trip id="253" depart="99.2013" fromJunction="3way_31" toJunction="3way_1"/>
<trip id="254" depart="99.5934" fromJunction="4way_16" toJunction="4way_7"/>
<trip id="255" depart="99.9855" fromJunction="3way_24" toJunction="3way_3"/>
<trip id="256" depart="100.3776" fromJunction="3way_32" toJunction="3way_1"/>
<trip id="257" depart="100.7697" fromJunction="3way_34" toJunction="4way_25"/>
<trip id="258" depart="101.1618" fromJunction="3way_4" toJunction="3way_23"/>
<trip id="259" depart="101.5539" fromJunction="4way_20" toJunction="4way_19"/>
<trip id="260" depart="101.946" fromJunction="4way_22" toJunction="4way_14"/>
<trip id="261" depart="102.3381" fromJunction="4way_8" toJunction="3way_1"/>
<trip id="262" depart="102.7302" fromJunction="4way_19" toJunction="4way_25"/>
<trip id="263" depart="103.1223" fromJunction="3way_1" toJunction="4way_22"/>
<trip id="264" depart="103.5144" fromJunction="4way_21" toJunction="4way_20"/>
<trip id="265" depart="103.9065" fromJunction="3way_32" toJunction="4way_7"/>
<trip id="266" depart="104.29860000000001" fromJunction="3way_4" toJunction="4way_15"/>
<trip id="267" depart="104.6907" fromJunction="4way_7" toJunction="3way_12"/>
<trip id="268" depart="105.0828" fromJunction="3way_3" toJunction="4way_20"/>
<trip id="269" depart="105.4749" fromJunction="3way_18" toJunction="3way_29"/>
<trip id="270" depart="105.867" fromJunction="4way_10" toJunction="4way_25"/>
<trip id="271" depart="106.2591" fromJunction="3way_11" toJunction="4way_25"/>
<trip id="272" depart="106.6512" fromJunction="4way_27" toJunction="4way_28"/>
<trip id="273" depart="107.0433" fromJunction="4way_16" toJunction="4way_7"/>
<trip id="274" depart="107.4354" fromJunction="4way_16" toJunction="4way_13"/>
<trip id="275" depart="107.8275" fromJunction="4way_22" toJunction="4way_21"/>
<trip id="276" depart="108.2196" fromJunction="3way_2" toJunction="4way_16"/>
<trip id="277" depart="108.6117" fromJunction="3way_24" toJunction="3way_17"/>
<trip id="278" depart="109.0038" fromJunction="3way_33" toJunction="4way_22"/>
<trip id="279" depart="109.3959" fromJunction="4way_10" toJunction="3way_17"/>
<trip id="280" depart="109.788" fromJunction="4way_16" toJunction="3way_12"/>
<trip id="281" depart="110.1801" fromJunction="4way_14" toJunction="3way_17"/>
<trip id="282" depart="110.5722" fromJunction="3way_3" toJunction="3way_12"/>
<trip id="283" depart="110.9643" fromJunction="3way_29" toJunction="4way_20"/>
<trip id="284" depart="111.35640000000001" fromJunction="4way_16" toJunction="3way_2"/>
<trip id="285" depart="111.7485" fromJunction="4way_10" toJunction="4way_26"/>
<trip id="286" depart="112.1406" fromJunction="4way_7" toJunction="4way_14"/>
<trip id="287" depart="112.5327" fromJunction="4way_28" toJunction="3way_33"/>
<trip id="288" depart="112.9248" fromJunction="3way_6" toJunction="3way_31"/>
<trip id="289" depart="113.3169" fromJunction="4way_28" toJunction="3way_24"/>
<trip id="290" depart="113.709" fromJunction="3way_32" toJunction="3way_17"/>
<trip id="291" depart="114.1011" fromJunction="3way_3" toJunction="4way_14"/>
<trip id="292" depart="114.4932" fromJunction="3way_6" toJunction="4way_25"/>
<trip id="293" depart="114.8853" fromJunction="3way_29" toJunction="3way_33"/>
<trip id="294" depart="115.2774" fromJunction="3way_31" toJunction="4way_7"/>
<trip id="295" depart="115.6695" fromJunction="3way_32" toJunction="3way_12"/>
<trip id="296" depart="116.0616" fromJunction="3way_11" toJunction="4way_28"/>
<trip id="297" depart="116.4537" fromJunction="3way_32" toJunction="3way_4"/>
<trip id="298" depart="116.8458" fromJunction="4way_14" toJunction="4way_19"/>
<trip id="299" depart="117.2379" fromJunction="4way_28" toJunction="3way_24"/>
<trip id="300" depart="117.63" fromJunction="4way_26" toJunction="3way_31"/>
<trip id="301" depart="118.0221" fromJunction="4way_21" toJunction="4way_8"/>
<trip id="302" depart="118.41420000000001" fromJunction="4way_10" toJunction="4way_28"/>
<trip id="303" depart="118.80630000000001" fromJunction="4way_20" toJunction="4way_9"/>
<trip id="304" depart="119.1984" fromJunction="3way_11" toJunction="3way_32"/>
<trip id="305" depart="119.5905" fromJunction="3way_29" toJunction="3way_3"/>
<trip id="306" depart="119.9826" fromJunction="4way_7" toJunction="3way_18"/>
<trip id="307" depart="120.3747" fromJunction="4way_22" toJunction="4way_9"/>
<trip id="308" depart="120.7668" fromJunction="4way_26" toJunction="4way_19"/>
<trip id="309" depart="121.1589" fromJunction="4way_16" toJunction="4way_27"/>
<trip id="310" depart="121.551" fromJunction="3way_24" toJunction="4way_28"/>
<trip id="311" depart="121.9431" fromJunction="3way_11" toJunction="3way_24"/>
<trip id="312" depart="122.3352" fromJunction="3way_4" toJunction="4way_27"/>
<trip id="313" depart="122.7273" fromJunction="4way_19" toJunction="3way_6"/>
<trip id="314" depart="123.1194" fromJunction="3way_17" toJunction="3way_29"/>
<trip id="315" depart="123.5115" fromJunction="3way_2" toJunction="4way_27"/>
<trip id="316" depart="123.9036" fromJunction="3way_4" toJunction="3way_6"/>
<trip id="317" depart="124.2957" fromJunction="4way_28" toJunction="3way_12"/>
<trip id="318" depart="124.6878" fromJunction="4way_27" toJunction="3way_18"/>
<trip id="319" depart="125.0799" fromJunction="3way_34" toJunction="3way_4"/>
<trip id="320" depart="125.47200000000001" fromJunction="3way_31" toJunction="4way_14"/>
<trip id="321" depart="125.86410000000001" fromJunction="4way_8" toJunction="4way_20"/>
<trip id="322" depart="126.2562" fromJunction="3way_18" toJunction="3way_24"/>
<trip id="323" depart="126.6483" fromJunction="3way_3" toJunction="4way_25"/>
<trip id="324" depart="127.0404" fromJunction="4way_8" toJunction="4way_21"/>
<trip id="325" depart="127.4325" fromJunction="4way_13" toJunction="4way_26"/>
<trip id="326" depart="127.8246" fromJunction="3way_24" toJunction="3way_4"/>
<trip id="327" depart="128.2167" fromJunction="3way_32" toJunction="3way_24"/>
<trip id="328" depart="128.6088" fromJunction="4way_26" toJunction="3way_1"/>
<trip id="329" depart="129.0009" fromJunction="4way_25" toJunction="3way_4"/>
<trip id="330" depart="129.393" fromJunction="4way_8" toJunction="4way_20"/>
<trip id="331" depart="129.7851" fromJunction="3way_4" toJunction="4way_22"/>
<trip id="332" depart="130.1772" fromJunction="3way_1" toJunction="4way_27"/>
<trip id="333" depart="130.5693" fromJunction="3way_24" toJunction="4way_13"/>
<trip id="334" depart="130.9614" fromJunction="3way_31" toJunction="4way_7"/>
<trip id="335" depart="131.3535" fromJunction="3way_1" toJunction="3way_23"/>
<trip id="336" depart="131.7456" fromJunction="4way_21" toJunction="4way_7"/>
<trip id="337" depart="132.1377" fromJunction="3way_29" toJunction="3way_31"/>
<trip id="338" depart="132.5298" fromJunction="3way_4" toJunction="3way_29"/>
<trip id="339" depart="132.9219" fromJunction="3way_3" toJunction="3way_34"/>
<trip id="340" depart="133.314" fromJunction="4way_27" toJunction="3way_3"/>
<trip id="341" depart="133.7061" fromJunction="4way_13" toJunction="3way_17"/>
<trip id="342" depart="134.0982" fromJunction="3way_12" toJunction="4way_9"/>
<trip id="343" depart="134.4903" fromJunction="3way_23" toJunction="3way_11"/>
<trip id="344" depart="134.8824" fromJunction="4way_7" toJunction="3way_18"/>
<trip id="345" depart="135.2745" fromJunction="4way_15" toJunction="3way_31"/>
<trip id="346" depart="135.6666" fromJunction="4way_16" toJunction="4way_9"/>
<trip id="347" depart="136.0587" fromJunction="4way_10" toJunction="3way_1"/>
<trip id="348" depart="136.45080000000002" fromJunction="4way_10" toJunction="3way_24"/>
<trip id="349" depart="136.84290000000001" fromJunction="4way_28" toJunction="4way_20"/>
<trip id="350" depart="137.235" fromJunction="3way_31" toJunction="4way_9"/>
<trip id="351" depart="137.6271" fromJunction="3way_24" toJunction="4way_7"/>
<trip id="352" depart="138.0192" fromJunction="3way_34" toJunction="3way_31"/>
<trip id="353" depart="138.4113" fromJunction="4way_14" toJunction="3way_6"/>
<trip id="354" depart="138.8034" fromJunction="4way_7" toJunction="3way_34"/>
<trip id="355" depart="139.1955" fromJunction="3way_17" toJunction="3way_4"/>
<trip id="356" depart="139.5876" fromJunction="4way_28" toJunction="3way_2"/>
<trip id="357" depart="139.9797" fromJunction="3way_17" toJunction="3way_1"/>
<trip id="358" depart="140.3718" fromJunction="3way_3" toJunction="4way_25"/>
<trip id="359" depart="140.7639" fromJunction="4way_26" toJunction="4way_10"/>
<trip id="360" depart="141.156" fromJunction="4way_7" toJunction="4way_22"/>
<trip id="361" depart="141.5481" fromJunction="4way_13" toJunction="3way_33"/>
<trip id="362" depart="141.9402" fromJunction="4way_7" toJunction="4way_16"/>
<trip id="363" depart="142.3323" fromJunction="4way_10" toJunction="3way_34"/>
<trip id="364" depart="142.7244" fromJunction="3way_1" toJunction="3way_31"/>
<trip id="365" depart="143.1165" fromJunction="3way_32" toJunction="3way_29"/>
<trip id="366" depart="143.5086" fromJunction="3way_12" toJunction="4way_27"/>
<trip id="367" depart="143.9007" fromJunction="3way_32" toJunction="3way_12"/>
<trip id="368" depart="144.2928" fromJunction="4way_22" toJunction="4way_10"/>
<trip id="369" depart="144.6849" fromJunction="3way_24" toJunction="4way_28"/>
<trip id="370" depart="145.077" fromJunction="4way_15" toJunction="4way_22"/>
<trip id="371" depart="145.4691" fromJunction="3way_29" toJunction="4way_14"/>
<trip id="372" depart="145.8612" fromJunction="3way_17" toJunction="3way_23"/>
<trip id="373" depart="146.2533" fromJunction="3way_33" toJunction="4way_16"/>
<trip id="374" depart="146.6454" fromJunction="3way_6" toJunction="3way_12"/>
<trip id="375" depart="147.0375" fromJunction="4way_27" toJunction="4way_9"/>
<trip id="376" depart="147.4296" fromJunction="3way_18" toJunction="3way_11"/>
<trip id="377" depart="147.8217" fromJunction="3way_17" toJunction="3way_4"/>
<trip id="378" depart="148.2138" fromJunction="3way_3" toJunction="3way_33"/>
<trip id="379" depart="148.6059" fromJunction="3way_4" toJunction="3way_18"/>
<trip id="380" depart="148.998" fromJunction="3way_29" toJunction="4way_19"/>