<routes xmlns:xsi="http://www.w3.org/2001/XMLSchema-instance" xsi:noNamespaceSchemaLocation="http://sumo.dlr.de/xsd/routes_file.xsd">
<trip id="0" depart="0.0" fromJunction="4way_7" toJunction="3way_5"/>
<trip id="1" depart="0.6153" fromJunction="3way_5" toJunction="4way_6"/>
<trip id="2" depart="1.2306" fromJunction="4way_11" toJunction="3way_21"/>
<trip id="3" depart="1.8458999999999999" fromJunction="4way_8" toJunction="3way_15"/>
<trip id="4" depart="2.4612" fromJunction="3way_21" toJunction="4way_18"/>
<trip id="5" depart="3.0765" fromJunction="3way_5" toJunction="4way_12"/>
<trip id="6" depart="3.6917999999999997" fromJunction="4way_13" toJunction="3way_5"/>
<trip id="7" depart="4.3071" fromJunction="4way_17" toJunction="3way_1"/>
<trip id="8" depart="4.9224" fromJunction="4way_8" toJunction="4way_12"/>
<trip id="9" depart="5.537699999999999" fromJunction="4way_12" toJunction="4way_18"/>
<trip id="10" depart="6.153" fromJunction="4way_12" toJunction="3way_15"/>
<trip id="11" depart="6.7683" fromJunction="4way_11" toJunction="3way_3"/>
<trip id="12" depart="7.3835999999999995" fromJunction="4way_13" toJunction="3way_9"/>
<trip id="13" depart="7.998899999999999" fromJunction="3way_21" toJunction="3way_10"/>
<trip id="14" depart="8.6142" fromJunction="4way_12" toJunction="3way_19"/>
<trip id="15" depart="9.2295" fromJunction="3way_5" toJunction="3way_15"/>
<trip id="16" depart="9.8448" fromJunction="4way_6" toJunction="3way_1"/>
<trip id="17" depart="10.460099999999999" fromJunction="4way_16" toJunction="4way_13"/>
<trip id="18" depart="11.075399999999998" fromJunction="3way_15" toJunction="3way_22"/>
<trip id="19" depart="11.6907" fromJunction="3way_2" toJunction="4way_16"/>
<trip id="20" depart="12.306" fromJunction="3way_3" toJunction="3way_14"/>
<trip id="21" depart="12.921299999999999" fromJunction="3way_22" toJunction="3way_23"/>
<trip id="22" depart="13.5366" fromJunction="3way_15" toJunction="3way_5"/>
<trip id="23" depart="14.1519" fromJunction="3way_3" toJunction="4way_18"/>
<trip id="24" depart="14.767199999999999" fromJunction="3way_9" toJunction="3way_14"/>
<trip id="25" depart="15.382499999999999" fromJunction="3way_19" toJunction="4way_11"/>
<trip id="26" depart="15.997799999999998" fromJunction="3way_19" toJunction="3way_15"/>
<trip id="27" depart="16.6131" fromJunction="3way_3" toJunction="3way_9"/>
<trip id="28" depart="17.2284" fromJunction="3way_3" toJunction="4way_11"/>
<trip id="29" depart="17.8437" fromJunction="3way_22" toJunction="3way_14"/>
<trip id="30" depart="18.459" fromJunction="3way_3" toJunction="4way_17"/>
<trip id="31" depart="19.074299999999997" fromJunction="3way_3" toJunction="4way_17"/>
<trip id="32" depart="19.6896" fromJunction="3way_15" toJunction="4way_18"/>
<trip id="33" depart="20.3049" fromJunction="4way_6" toJunction="4way_18"/>
<trip id="34" depart="20.920199999999998" fromJunction="3way_1" toJunction="4way_7"/>
<trip id="35" depart="21.5355" fromJunction="3way_3" toJunction="3way_19"/>
<trip id="36" depart="22.150799999999997" fromJunction="3way_3" toJunction="3way_23"/>
<trip id="37" depart="22.766099999999998" fromJunction="3way_21" toJunction="3way_23"/>
<trip id="38" depart="23.3814" fromJunction="4way_16" toJunction="3way_2"/>
<trip id="39" depart="23.996699999999997" fromJunction="3way_19" toJunction="3way_5"/>
<trip id="40" depart="24.612" fromJunction="3way_2" toJunction="3way_10"/>
<trip id="41" depart="25.2273" fromJunction="4way_13" toJunction="4way_6"/>
<trip id="42" depart="25.842599999999997" fromJunction="4way_16" toJunction="3way_23"/>
<trip id="43" depart="26.4579" fromJunction="4way_7" toJunction="3way_3"/>
<trip id="44" depart="27.0732" fromJunction="3way_9" toJunction="3way_23"/>
<trip id="45" depart="27.688499999999998" fromJunction="3way_1" toJunction="4way_6"/>
<trip id="46" depart="28.3038" fromJunction="3way_1" toJunction="4way_17"/>
<trip id="47" depart="28.919099999999997" fromJunction="3way_19" toJunction="4way_16"/>
<trip id="48" depart="29.534399999999998" fromJunction="4way_18" toJunction="4way_7"/>
<trip id="49" depart="30.1497" fromJunction="4way_6" toJunction="3way_19"/>
<trip id="50" depart="30.764999999999997" fromJunction="4way_18" toJunction="3way_14"/>
<trip id="51" depart="31.3803" fromJunction="4way_17" toJunction="3way_15"/>
<trip id="52" depart="31.995599999999996" fromJunction="3way_23" toJunction="4way_16"/>
<trip id="53" depart="32.6109" fromJunction="3way_21" toJunction="4way_17"/>
<trip id="54" depart="33.2262" fromJunction="4way_6" toJunction="4way_8"/>
<trip id="55" depart="33.841499999999996" fromJunction="4way_16" toJunction="4way_8"/>
<trip id="56" depart="34.4568" fromJunction="3way_10" toJunction="4way_7"/>
<trip id="57" depart="35.0721" fromJunction="4way_11" toJunction="4way_18"/>
<trip id="58" depart="35.6874" fromJunction="4way_6" toJunction="3way_21"/>
<trip id="59" depart="36.302699999999994" fromJunction="3way_23" toJunction="3way_1"/>
<trip id="60" depart="36.918" fromJunction="3way_23" toJunction="4way_11"/>
<trip id="61" depart="37.5333" fromJunction="3way_15" toJunction="4way_6"/>
<trip id="62" depart="38.148599999999995" fromJunction="3way_23" toJunction="3way_3"/>
<trip id="63" depart="38.7639" fromJunction="4way_6" toJunction="3way_5"/>
<trip id="64" depart="39.3792" fromJunction="4way_11" toJunction="4way_6"/>
<trip id="65" depart="39.994499999999995" fromJunction="3way_15" toJunction="4way_11"/>
<trip id="66" depart="40.6098" fromJunction="3way_22" toJunction="4way_8"/>
<trip id="67" depart="41.2251" fromJunction="4way_8" toJunction="3way_15"/>
<trip id="68" depart="41.840399999999995" fromJunction="4way_16" toJunction="4way_12"/>
<trip id="69" depart="42.4557" fromJunction="4way_13" toJunction="3way_3"/>
<trip id="70" depart="43.071" fromJunction="4way_18" toJunction="4way_16"/>
<trip id="71" depart="43.686299999999996" fromJunction="4way_8" toJunction="3way_9"/>
<trip id="72" depart="44.30159999999999" fromJunction="4way_6" toJunction="3way_9"/>
<trip id="73" depart="44.9169" fromJunction="4way_17" toJunction="3way_3"/>
<trip id="74" depart="45.532199999999996" fromJunction="3way_5" toJunction="4way_12"/>
<trip id="75" depart="46.147499999999994" fromJunction="3way_2" toJunction="3way_21"/>
<trip id="76" depart="46.7628" fromJunction="3way_15" toJunction="4way_16"/>
<trip id="77" depart="47.378099999999996" fromJunction="4way_8" toJunction="4way_7"/>
<trip id="78" depart="47.993399999999994" fromJunction="4way_17" toJunction="4way_18"/>
<trip id="79" depart="48.6087" fromJunction="3way_22" toJunction="3way_1"/>
<trip id="80" depart="49.224" fromJunction="3way_9" toJunction="4way_7"/>
<trip id="81" depart="49.839299999999994" fromJunction="3way_2" toJunction="3way_10"/>
<trip id="82" depart="50.4546" fromJunction="3way_1" toJunction="3way_14"/>
<trip id="83" depart="51.0699" fromJunction="3way_14" toJunction="4way_12"/>
<trip id="84" depart="51.685199999999995" fromJunction="4way_13" toJunction="3way_22"/>
<trip id="85" depart="52.3005" fromJunction="3way_1" toJunction="4way_16"/>
<trip id="86" depart="52.9158" fromJunction="4way_11" toJunction="3way_9"/>
<trip id="87" depart="53.531099999999995" fromJunction="3way_14" toJunction="4way_6"/>
<trip id="88" depart="54.1464" fromJunction="4way_6" toJunction="4way_13"/>
<trip id="89" depart="54.7617" fromJunction="4way_6" toJunction="3way_5"/>
<trip id="90" depart="55.376999999999995" fromJunction="3way_23" toJunction="4way_7"/>
<trip id="91" depart="55.99229999999999" fromJunction="3way_14" toJunction="3way_21"/>
<trip id="92" depart="56.6076" fromJunction="4way_13" toJunction="3way_9"/>
<trip id="93" depart="57.222899999999996" fromJunction="3way_10" toJunction="4way_7"/>
<trip id="94" depart="57.83819999999999" fromJunction="3way_19" toJunction="3way_14"/>
<trip id="95" depart="58.4535" fromJunction="3way_15" toJunction="3way_2"/>
<trip id="96" depart="59.068799999999996" fromJunction="4way_16" toJunction="3way_23"/>
<trip id="97" depart="59.684099999999994" fromJunction="3way_9" toJunction="3way_22"/>
<trip id="98" depart="60.2994" fromJunction="3way_2" toJunction="3way_1"/>
<trip id="99" depart="60.914699999999996" fromJunction="3way_15" toJunction="4way_16"/>
<trip id="100" depart="61.529999999999994" fromJunction="4way_8" toJunction="3way_5"/>
<trip id="101" depart="62.1453" fromJunction="3way_14" toJunction="4way_18"/>
<trip id="102" depart="62.7606" fromJunction="3way_19" toJunction="4way_11"/>
<trip id="103" depart="63.375899999999994" fromJunction="4way_7" toJunction="3way_1"/>
<trip id="104" depart="63.99119999999999" fromJunction="3way_21" toJunction="3way_23"/>
<trip id="105" depart="64.6065" fromJunction="4way_17" toJunction="4way_6"/>
<trip id="106" depart="65.2218" fromJunction="4way_8" toJunction="4way_11"/>
<trip id="107" depart="65.83709999999999" fromJunction="4way_12" toJunction="3way_19"/>
<trip id="108" depart="66.4524" fromJunction="4way_18" toJunction="3way_9"/>
<trip id="109" depart="67.0677" fromJunction="3way_14" toJunction="4way_16"/>
<trip id="110" depart="67.68299999999999" fromJunction="4way_7" toJunction="4way_13"/>
<trip id="111" depart="68.2983" fromJunction="3way_14" toJunction="3way_19"/>
<trip id="112" depart="68.9136" fromJunction="3way_1" toJunction="3way_10"/>
<trip id="113" depart="69.5289" fromJunction="3way_21" toJunction="3way_14"/>
<trip id="114" depart="70.1442" fromJunction="3way_15" toJunction="3way_22"/>
<trip id="115" depart="70.75949999999999" fromJunction="4way_6" toJunction="3way_19"/>
<trip id="116" depart="71.3748" fromJunction="3way_3" toJunction="4way_8"/>
<trip id="117" depart="71.9901" fromJunction="3way_3" toJunction="3way_10"/>
<trip id="118" depart="72.60539999999999" fromJunction="3way_21" toJunction="4way_7"/>
<trip id="119" depart="73.2207" fromJunction="3way_9" toJunction="3way_5"/>
<trip id="120" depart="73.836" fromJunction="3way_10" toJunction="3way_9"/>
<trip id="121" depart="74.45129999999999" fromJunction="4way_13" toJunction="3way_22"/>
<trip id="122" depart="75.0666" fromJunction="4way_7" toJunction="4way_12"/>
<trip id="123" depart="75.6819" fromJunction="3way_2" toJunction="4way_8"/>
<trip id="124" depart="76.29719999999999" fromJunction="4way_6" toJunction="3way_5"/>
<trip id="125" depart="76.9125" fromJunction="3way_23" toJunction="4way_18"/>
<trip id="126" depart="77.5278" fromJunction="3way_3" toJunction="3way_19"/>
<trip id="127" depart="78.14309999999999" fromJunction="4way_13" toJunction="3way_1"/>
<trip id="128" depart="78.7584" fromJunction="4way_12" toJunction="4way_16"/>
<trip id="129" depart="79.3737" fromJunction="4way_6" toJunction="3way_19"/>
<trip id="130" depart="79.98899999999999" fromJunction="3way_10" toJunction="3way_2"/>
<trip id="131" depart="80.6043" fromJunction="4way_8" toJunction="4way_18"/>
<trip id="132" depart="81.2196" fromJunction="4way_18" toJunction="3way_22"/>
<trip id="133" depart="81.83489999999999" fromJunction="4way_13" toJunction="3way_14"/>
<trip id="134" depart="82.4502" fromJunction="4way_12" toJunction="4way_13"/>
<trip id="135" depart="83.0655" fromJunction="4way_8" toJunction="4way_11"/>
<trip id="136" depart="83.68079999999999" fromJunction="4way_17" toJunction="3way_23"/>
<trip id="137" depart="84.2961" fromJunction="3way_1" toJunction="4way_6"/>
<trip id="138" depart="84.9114" fromJunction="3way_9" toJunction="3way_22"/>
<trip id="139" depart="85.52669999999999" fromJunction="3way_10" toJunction="4way_18"/>
<trip id="140" depart="86.142" fromJunction="4way_11" toJunction="3way_10"/>
<trip id="141" depart="86.7573" fromJunction="3way_3" toJunction="3way_22"/>
<trip id="142" depart="87.37259999999999" fromJunction="3way_9" toJunction="4way_17"/>
<trip id="143" depart="87.9879" fromJunction="3way_14" toJunction="3way_10"/>
<trip id="144" depart="88.60319999999999" fromJunction="4way_8" toJunction="3way_3"/>
<trip id="145" depart="89.21849999999999" fromJunction="4way_12" toJunction="4way_13"/>
<trip id="146" depart="89.8338" fromJunction="3way_2" toJunction="3way_23"/>
<trip id="147" depart="90.44909999999999" fromJunction="3way_14" toJunction="3way_21"/>
<trip id="148" depart="91.06439999999999" fromJunction="3way_2" toJunction="3way_3"/>
<trip id="149" depart="91.6797" fromJunction="3way_1" toJunction="4way_7"/>
<trip id="150" depart="92.29499999999999" fromJunction="3way_9" toJunction="4way_12"/>
<trip id="151" depart="92.91029999999999" fromJunction="3way_19" toJunction="4way_16"/>
<trip id="152" depart="93.5256" fromJunction="3way_5" toJunction="3way_21"/>
<trip id="153" depart="94.14089999999999" fromJunction="4way_7" toJunction="4way_8"/>
<trip id="154" depart="94.75619999999999" fromJunction="3way_3" toJunction="3way_19"/>
<trip id="155" depart="95.3715" fromJunction="3way_23" toJunction="3way_2"/>
<trip id="156" depart="95.98679999999999" fromJunction="3way_15" toJunction="3way_19"/>
<trip id="157" depart="96.6021" fromJunction="3way_22" toJunction="3way_19"/>
<trip id="158" depart="97.2174" fromJunction="4way_12" toJunction="3way_9"/>
<trip id="159" depart="97.83269999999999" fromJunction="4way_16" toJunction="3way_2"/>
<trip id="160" depart="98.448" fromJunction="3way_22" toJunction="3way_19"/>
<trip id="161" depart="99.0633" fromJunction="3way_19" toJunction="4way_6"/>
<trip id="162" depart="99.67859999999999" fromJunction="3way_14" toJunction="3way_22"/>
<trip id="163" depart="100.2939" fromJunction="3way_1" toJunction="3way_15"/>
<trip id="164" depart="100.9092" fromJunction="3way_2" toJunction="4way_12"/>
<trip id="165" depart="101.52449999999999" fromJunction="3way_23" toJunction="3way_10"/>
<trip id="166" depart="102.1398" fromJunction="4way_18" toJunction="4way_6"/>
<trip id="167" depart="102.7551" fromJunction="3way_1" toJunction="4way_11"/>
<trip id="168" depart="103.37039999999999" fromJunction="3way_10" toJunction="3way_15"/>
<trip id="169" depart="103.9857" fromJunction="4way_16" toJunction="3way_5"/>
<trip id="170" depart="104.601" fromJunction="3way_3" toJunction="3way_19"/>
<trip id="171" depart="105.21629999999999" fromJunction="4way_18" toJunction="3way_21"/>
<trip id="172" depart="105.8316" fromJunction="4way_8" toJunction="3way_9"/>
<trip id="173" depart="106.4469" fromJunction="3way_15" toJunction="3way_5"/>
<trip id="174" depart="107.06219999999999" fromJunction="3way_15" toJunction="4way_8"/>
<trip id="175" depart="107.6775" fromJunction="3way_21" toJunction="4way_7"/>
<trip id="176" depart="108.2928" fromJunction="4way_16" toJunction="4way_8"/>
<trip id="177" depart="108.90809999999999" fromJunction="3way_23" toJunction="4way_16"/>
<trip id="178" depart="109.5234" fromJunction="4way_11" toJunction="4way_7"/>
<trip id="179" depart="110.13869999999999" fromJunction="3way_9" toJunction="3way_19"/>
<trip id="180" depart="110.75399999999999" fromJunction="4way_18" toJunction="4way_12"/>
<trip id="181" depart="111.3693" fromJunction="4way_6" toJunction="3way_15"/>
<trip id="182" depart="111.98459999999999" fromJunction="3way_15" toJunction="4way_8"/>
<trip id="183" depart="112.59989999999999" fromJunction="4way_6" toJunction="4way_13"/>
<trip id="184" depart="113.2152" fromJunction="4way_13" toJunction="4way_17"/>
<trip id="185" depart="113.83049999999999" fromJunction="3way_9" toJunction="4way_17"/>
<trip id="186" depart="114.44579999999999" fromJunction="3way_21" toJunction="4way_11"/>
<trip id="187" depart="115.0611" fromJunction="3way_21" toJunction="3way_2"/>
<trip id="188" depart="115.67639999999999" fromJunction="4way_17" toJunction="3way_19"/>
<trip id="189" depart="116.29169999999999" fromJunction="4way_18" toJunction="3way_1"/>
<trip id="190" depart="116.907" fromJunction="3way_9" toJunction="3way_1"/>
<trip id="191" depart="117.52229999999999" fromJunction="4way_13" toJunction="3way_21"/>
<trip id="192" depart="118.13759999999999" fromJunction="4way_13" toJunction="3way_3"/>
<trip id="193" depart="118.7529" fromJunction="3way_15" toJunction="4way_8"/>
<trip id="194" depart="119.36819999999999" fromJunction="3way_14" toJunction="3way_23"/>
<trip id="195" depart="119.98349999999999" fromJunction="3way_1" toJunction="4way_6"/>
<trip id="196" depart="120.5988" fromJunction="3way_15" toJunction="3way_1"/>
<trip id="197" depart="121.21409999999999" fromJunction="3way_19" toJunction="3way_2"/>
<trip id="198" depart="121.82939999999999" fromJunction="3way_19" toJunction="3way_14"/>
<trip id="199" depart="122.4447" fromJunction="3way_1" toJunction="3way_3"/>
<trip id="200" depart="123.05999999999999" fromJunction="4way_6" toJunction="3way_3"/>
<trip id="201" depart="123.6753" fromJunction="3way_9" toJunction="3way_21"/>
<trip id="202" depart="124.2906" fromJunction="3way_10" toJunction="4way_11"/>
<trip id="203" depart="124.90589999999999" fromJunction="3way_2" toJunction="4way_18"/>
<trip id="204" depart="125.5212" fromJunction="3way_23" toJunction="4way_12"/>
<trip id="205" depart="126.1365" fromJunction="4way_11" toJunction="3way_19"/>
<trip id="206" depart="126.75179999999999" fromJunction="4way_11" toJunction="3way_19"/>
<trip id="207" depart="127.3671" fromJunction="3way_21" toJunction="3way_10"/>
<trip id="208" depart="127.98239999999998" fromJunction="3way_23" toJunction="3way_5"/>
<trip id="209" depart="128.5977" fromJunction="3way_21" toJunction="4way_16"/>
<trip id="210" depart="129.213" fromJunction="4way_17" toJunction="3way_22"/>
<trip id="211" depart="129.82829999999998" fromJunction="3way_1" toJunction="4way_13"/>
<trip id="212" depart="130.4436" fromJunction="3way_22" toJunction="3way_14"/>
<trip id="213" depart="131.0589" fromJunction="4way_18" toJunction="4way_17"/>
<trip id="214" depart="131.67419999999998" fromJunction="4way_13" toJunction="4way_18"/>
<trip id="215" depart="132.2895" fromJunction="4way_18" toJunction="3way_23"/>
<trip id="216" depart="132.9048" fromJunction="3way_3" toJunction="3way_19"/>
<trip id="217" depart="133.52009999999999" fromJunction="3way_14" toJunction="4way_13"/>
<trip id="218" depart="134.1354" fromJunction="3way_2" toJunction="4way_16"/>
<trip id="219" depart="134.7507" fromJunction="4way_8" toJunction="4way_7"/>
<trip id="220" depart="135.36599999999999" fromJunction="3way_22" toJunction="3way_19"/>
<trip id="221" depart="135.9813" fromJunction="4way_7" toJunction="3way_22"/>
<trip id="222" depart="136.5966" fromJunction="3way_9" toJunction="3way_14"/>
<trip id="223" depart="137.21189999999999" fromJunction="3way_23" toJunction="3way_15"/>
<trip id="224" depart="137.8272" fromJunction="3way_14" toJunction="4way_17"/>
<trip id="225" depart="138.4425" fromJunction="4way_13" toJunction="3way_10"/>
<trip id="226" depart="139.0578" fromJunction="4way_8" toJunction="4way_11"/>
<trip id="227" depart="139.67309999999998" fromJunction="4way_7" toJunction="4way_13"/>
<trip id="228" depart="140.2884" fromJunction="4way_18" toJunction="4way_16"/>
<trip id="229" depart="140.9037" fromJunction="3way_15" toJunction="4way_18"/>
<trip id="230" depart="141.51899999999998" fromJunction="3way_23" toJunction="3way_2"/>
<trip id="231" depart="142.1343" fromJunction="3way_21" toJunction="3way_9"/>
<trip id="232" depart="142.7496" fromJunction="4way_6" toJunction="3way_3"/>
<trip id="233" depart="143.36489999999998" fromJunction="4way_8" toJunction="3way_21"/>
<trip id="234" depart="143.9802" fromJunction="3way_5" toJunction="4way_18"/>
<trip id="235" depart="144.5955" fromJunction="4way_6" toJunction="3way_19"/>
<trip id="236" depart="145.21079999999998" fromJunction="3way_21" toJunction="4way_8"/>
<trip id="237" depart="145.8261" fromJunction="3way_19" toJunction="3way_5"/>
<trip id="238" depart="146.4414" fromJunction="3way_21" toJunction="3way_15"/>
<trip id="239" depart="147.05669999999998" fromJunction="3way_10" toJunction="3way_19"/>
<trip id="240" depart="147.672" fromJunction="3way_22" toJunction="3way_23"/>
<trip id="241" depart="148.2873" fromJunction="4way_7" toJunction="3way_5"/>
<trip id="242" depart="148.90259999999998" fromJunction="4way_13" toJunction="3way_22"/>
<trip id="243" depart="149.5179" fromJunction="3way_2" toJunction="4way_8"/>
<trip id="244" depart="150.1332" fromJunction="3way_15" toJunction="3way_19"/>
<trip id="245" depart="150.74849999999998" fromJunction="3way_22" toJunction="3way_3"/>
<trip id="246" depart="151.3638" fromJunction="4way_16" toJunction="4way_7"/>
<trip id="247" depart="151.9791" fromJunction="4way_16" toJunction="4way_11"/>
<trip id="248" depart="152.59439999999998" fromJunction="3way_22" toJunction="3way_14"/>
<trip id="249" depart="153.2097" fromJunction="4way_8" toJunction="4way_16"/>
<trip id="250" depart="153.825" fromJunction="3way_19" toJunction="3way_5"/>
<trip id="251" depart="154.44029999999998" fromJunction="4way_16" toJunction="3way_1"/>
<trip id="252" depart="155.0556" fromJunction="3way_22" toJunction="3way_1"/>
<trip id="253" depart="155.6709" fromJunction="4way_13" toJunction="3way_5"/>
<trip id="254" depart="156.28619999999998" fromJunction="3way_21" toJunction="3way_2"/>
<trip id="255" depart="156.9015" fromJunction="3way_22" toJunction="3way_1"/>
<trip id="256" depart="157.5168" fromJunction="3way_19" toJunction="4way_11"/>
<trip id="257" depart="158.13209999999998" fromJunction="3way_3" toJunction="3way_14"/>
<trip id="258" depart="158.7474" fromJunction="4way_16" toJunction="4way_6"/>
<trip id="259" depart="159.3627" fromJunction="4way_13" toJunction="4way_16"/>
<trip id="260" depart="159.97799999999998" fromJunction="4way_11" toJunction="3way_1"/>
<trip id="261" depart="160.5933" fromJunction="3way_1" toJunction="4way_18"/>
<trip id="262" depart="161.2086" fromJunction="4way_17" toJunction="4way_16"/>
<trip id="263" depart="161.82389999999998" fromJunction="3way_22" toJunction="3way_10"/>
<trip id="264" depart="162.4392" fromJunction="3way_3" toJunction="4way_12"/>
<trip id="265" depart="163.0545" fromJunction="3way_10" toJunction="3way_15"/>
<trip id="266" depart="163.66979999999998" fromJunction="3way_2" toJunction="4way_16"/>
<trip id="267" depart="164.2851" fromJunction="3way_21" toJunction="3way_14"/>
<trip id="268" depart="164.9004" fromJunction="4way_8" toJunction="4way_11"/>
<trip id="269" depart="165.51569999999998" fromJunction="3way_3" toJunction="4way_6"/>
<trip id="270" depart="166.131" fromJunction="4way_8" toJunction="4way_18"/>
<trip id="271" depart="166.7463" fromJunction="4way_13" toJunction="3way_10"/>
<trip id="272" depart="167.36159999999998" fromJunction="4way_13" toJunction="3way_5"/>
<trip id="273" depart="167.9769" fromJunction="4way_18" toJunction="4way_17"/>
<trip id="274" depart="168.5922" fromJunction="3way_1" toJunction="4way_13"/>
<trip id="275" depart="169.20749999999998" fromJunction="3way_21" toJunction="3way_9"/>
<trip id="276" depart="169.8228" fromJunction="3way_23" toJunction="4way_13"/>
<trip id="277" depart="170.4381" fromJunction="4way_8" toJunction="3way_9"/>
<trip id="278" depart="171.05339999999998" fromJunction="4way_13" toJunction="3way_15"/>
<trip id="279" depart="171.6687" fromJunction="4way_11" toJunction="3way_9"/>
<trip id="280" depart="172.284" fromJunction="3way_2" toJunction="3way_15"/>
<trip id="281" depart="172.89929999999998" fromJunction="3way_19" toJunction="4way_16"/>
<trip id="282" depart="173.5146" fromJunction="3way_2" toJunction="3way_1"/>
<trip id="283" depart="174.1299" fromJunction="4way_13" toJunction="3way_2"/>
<trip id="284" depart="174.74519999999998" fromJunction="4way_8" toJunction="4way_7"/>
<trip id="285" depart="175.3605" fromJunction="3way_5" toJunction="4way_16"/>
<trip id="286" depart="175.9758" fromJunction="4way_18" toJunction="3way_23"/>
<trip id="287" depart="176.59109999999998" fromJunction="3way_15" toJunction="3way_22"/>
<trip id="288" depart="177.20639999999997" fromJunction="4way_18" toJunction="3way_22"/>
<trip id="289" depart="177.8217" fromJunction="3way_23" toJunction="3way_9"/>
<trip id="290" depart="178.43699999999998" fromJunction="3way_2" toJunction="4way_16"/>
<trip id="291" depart="179.05229999999997" fromJunction="3way_10" toJunction="4way_6"/>
<trip id="292" depart="179.6676" fromJunction="3way_22" toJunction="3way_10"/>
<trip id="293" depart="180.28289999999998" fromJunction="3way_22" toJunction="3way_15"/>
<trip id="294" depart="180.89819999999997" fromJunction="3way_3" toJunction="4way_18"/>
<trip id="295" depart="181.5135" fromJunction="3way_22" toJunction="3way_3"/>
<trip id="296" depart="182.12879999999998" fromJunction="4way_11" toJunction="4way_6"/>
<trip id="297" depart="182.74409999999997" fromJunction="4way_18" toJunction="3way_21"/>
<trip id="298" depart="183.3594" fromJunction="4way_7" toJunction="3way_22"/>
<trip id="299" depart="183.97469999999998" fromJunction="4way_17" toJunction="4way_11"/>
<trip id="300" depart="184.58999999999997" fromJunction="4way_8" toJunction="4way_18"/>
<trip id="301" depart="185.2053" fromJunction="4way_16" toJunction="4way_12"/>
<trip id="302" depart="185.82059999999998" fromJunction="3way_9" toJunction="3way_22"/>
<trip id="303" depart="186.43589999999998" fromJunction="3way_19" toJunction="3way_2"/>
<trip id="304" depart="187.0512" fromJunction="3way_10" toJunction="3way_15"/>
<trip id="305" depart="187.66649999999998" fromJunction="4way_18" toJunction="4way_12"/>
<trip id="306" depart="188.28179999999998" fromJunction="4way_7" toJunction="4way_6"/>
<trip id="307" depart="188.8971" fromJunction="4way_13" toJunction="4way_17"/>
<trip id="308" depart="189.51239999999999" fromJunction="3way_21" toJunction="4way_18"/>
<trip id="309" depart="190.12769999999998" fromJunction="3way_9" toJunction="3way_22"/>
<trip id="310" depart="190.743" fromJunction="4way_11" toJunction="4way_16"/>
<trip id="311" depart="191.35829999999999" fromJunction="3way_3" toJunction="4way_8"/>
<trip id="312" depart="191.97359999999998" fromJunction="4way_6" toJunction="3way_10"/>
<trip id="313" depart="192.5889" fromJunction="3way_9" toJunction="3way_19"/>
<trip id="314" depart="193.2042" fromJunction="3way_2" toJunction="4way_8"/>
<trip id="315" depart="193.81949999999998" fromJunction="3way_3" toJunction="3way_15"/>
<trip id="316" depart="194.4348" fromJunction="4way_18" toJunction="3way_15"/>
<trip id="317" depart="195.0501" fromJunction="4way_17" toJunction="3way_21"/>
<trip id="318" depart="195.66539999999998" fromJunction="3way_19" toJunction="3way_3"/>
<trip id="319" depart="196.2807" fromJunction="3way_22" toJunction="4way_16"/>
<trip id="320" depart="196.896" fromJunction="4way_11" toJunction="4way_16"/>
<trip id="321" depart="197.51129999999998" fromJunction="3way_15" toJunction="3way_21"/>
<trip id="322" depart="198.1266" fromJunction="3way_2" toJunction="4way_6"/>
<trip id="323" depart="198.7419" fromJunction="4way_11" toJunction="4way_17"/>
<trip id="324" depart="199.35719999999998" fromJunction="3way_5" toJunction="4way_7"/>
<trip id="325" depart="199.9725" fromJunction="3way_21" toJunction="3way_3"/>
<trip id="326" depart="200.5878" fromJunction="3way_23" toJunction="3way_21"/>
<trip id="327" depart="201.20309999999998" fromJunction="4way_7" toJunction="3way_1"/>
<trip id="328" depart="201.8184" fromJunction="4way_6" toJunction="3way_3"/>
<trip id="329" depart="202.4337" fromJunction="4way_11" toJunction="4way_16"/>
<trip id="330" depart="203.04899999999998" fromJunction="3way_3" toJunction="4way_18"/>
<trip id="331" depart="203.6643" fromJunction="3way_1" toJunction="4way_8"/>
<trip id="332" depart="204.2796" fromJunction="3way_21" toJunction="3way_5"/>
<trip id="333" depart="204.89489999999998" fromJunction="3way_22" toJunction="3way_5"/>
<trip id="334" depart="205.5102" fromJunction="3way_1" toJunction="3way_14"/>
<trip id="335" depart="206.1255" fromJunction="4way_17" toJunction="3way_10"/>
<trip id="336" depart="206.74079999999998" fromJunction="3way_14" toJunction="3way_22"/>
<trip id="337" depart="207.3561" fromJunction="3way_3" toJunction="3way_14"/>
<trip id="338" depart="207.9714" fromJunction="3way_2" toJunction="3way_19"/>
<trip id="339" depart="208.58669999999998" fromJunction="4way_17" toJunction="3way_2"/>
<trip id="340" depart="209.202" fromJunction="3way_5" toJunction="3way_9"/>
<trip id="341" depart="209.8173" fromJunction="3way_15" toJunction="4way_12"/>
<trip id="342" depart="210.43259999999998" fromJunction="3way_14" toJunction="3way_9"/>
<trip id="343" depart="211.0479" fromJunction="3way_5" toJunction="3way_15"/>
<trip id="344" depart="211.6632" fromJunction="4way_12" toJunction="3way_22"/>
<trip id="345" depart="212.27849999999998" fromJunction="4way_13" toJunction="4way_7"/>
<trip id="346" depart="212.8938" fromJunction="4way_8" toJunction="3way_1"/>
<trip id="347" depart="213.5091" fromJunction="4way_8" toJunction="3way_21"/>
<trip id="348" depart="214.12439999999998" fromJunction="4way_18" toJunction="4way_16"/>
<trip id="349" depart="214.7397" fromJunction="3way_22" toJunction="4way_7"/>
<trip id="350" depart="215.355" fromJunction="3way_22" toJunction="3way_10"/>
<trip id="351" depart="215.97029999999998" fromJunction="3way_19" toJunction="3way_22"/>
<trip id="352" depart="216.5856" fromJunction="4way_16" toJunction="3way_10"/>
<trip id="353" depart="217.2009" fromJunction="3way_5" toJunction="3way_19"/>
<trip id="354" depart="217.81619999999998" fromJunction="3way_9" toJunction="3way_3"/>
<trip id="355" depart="218.43149999999997" fromJunction="4way_18" toJunction="3way_1"/>
<trip id="356" depart="219.0468" fromJunction="3way_9" toJunction="3way_1"/>
<trip id="357" depart="219.66209999999998" fromJunction="3way_2" toJunction="4way_6"/>
<trip id="358" depart="220.27739999999997" fromJunction="4way_7" toJunction="4way_8"/>
<trip id="359" depart="220.8927" fromJunction="3way_10" toJunction="4way_18"/>
<trip id="360" depart="221.50799999999998" fromJunction="3way_5" toJunction="3way_23"/>
<trip id="361" depart="222.12329999999997" fromJunction="3way_10" toJunction="4way_13"/>
<trip id="362" depart="222.7386" fromJunction="4way_8" toJunction="3way_19"/>
<trip id="363" depart="223.35389999999998" fromJunction="3way_1" toJunction="3way_22"/>
<trip id="364" depart="223.96919999999997" fromJunction="3way_23" toJunction="3way_19"/>