<routes xmlns:xsi="http://www.w3.org/2001/XMLSchema-instance" xsi:noNamespaceSchemaLocation="http://sumo.dlr.de/xsd/routes_file.xsd">
<trip id="0" depart="0.0" fromJunction="4way_292" toJunction="4way_49"/>
<trip id="1" depart="0.3333" fromJunction="4way_368" toJunction="4way_110"/>
<trip id="2" depart="0.6666" fromJunction="4way_91" toJunction="4way_126"/>
<trip id="3" depart="0.9999" fromJunction="4way_256" toJunction="4way_246"/>
<trip id="4" depart="1.3332" fromJunction="4way_165" toJunction="4way_98"/>
<trip id="5" depart="1.6664999999999999" fromJunction="4way_248" toJunction="4way_174"/>
<trip id="6" depart="1.9998" fromJunction="4way_157" toJunction="4way_189"/>
<trip id="7" depart="2.3331" fromJunction="3way_359" toJunction="3way_239"/>
<trip id="8" depart="2.6664" fromJunction="4way_135" toJunction="3way_9"/>
<trip id="9" depart="2.9997" fromJunction="4way_76" toJunction="4way_74"/>
<trip id="10" depart="3.3329999999999997" fromJunction="4way_234" toJunction="4way_218"/>
<trip id="11" depart="3.6662999999999997" fromJunction="4way_94" toJunction="4way_67"/>
<trip id="12" depart="3.9996" fromJunction="4way_51" toJunction="3way_388"/>
<trip id="13" depart="4.3328999999999995" fromJunction="4way_317" toJunction="3way_320"/>
<trip id="14" depart="4.6662" fromJunction="4way_66" toJunction="4way_188"/>
<trip id="15" depart="4.999499999999999" fromJunction="4way_34" toJunction="4way_302"/>
<trip id="16" depart="5.3328" fromJunction="4way_209" toJunction="4way_27"/>
<trip id="17" depart="5.6661" fromJunction="4way_230" toJunction="3way_8"/>
<trip id="18" depart="5.9994" fromJunction="4way_230" toJunction="4way_190"/>
<trip id="19" depart="6.3327" fromJunction="4way_32" toJunction="4way_297"/>
<trip id="20" depart="6.6659999999999995" fromJunction="4way_246" toJunction="4way_344"/>
<trip id="21" depart="6.9993" fromJunction="3way_139" toJunction="4way_152"/>
<trip id="22" depart="7.332599999999999" fromJunction="4way_291" toJunction="4way_271"/>
<trip id="23" depart="7.6659" fromJunction="3way_383" toJunction="4way_241"/>
<trip id="24" depart="7.9992" fromJunction="4way_25" toJunction="4way_343"/>
<trip id="25" depart="8.3325" fromJunction="4way_246" toJunction="4way_209"/>
<trip id="26" depart="8.665799999999999" fromJunction="3way_394" toJunction="4way_298"/>
<trip id="27" depart="8.9991" fromJunction="3way_180" toJunction="4way_221"/>
<trip id="28" depart="9.3324" fromJunction="4way_222" toJunction="4way_151"/>
<trip id="29" depart="9.6657" fromJunction="4way_142" toJunction="4way_107"/>
<trip id="30" depart="9.998999999999999" fromJunction="3way_391" toJunction="3way_200"/>
<trip id="31" depart="10.3323" fromJunction="3way_360" toJunction="4way_171"/>
<trip id="32" depart="10.6656" fromJunction="4way_65" toJunction="4way_121"/>
<trip id="33" depart="10.998899999999999" fromJunction="3way_396" toJunction="4way_55"/>
<trip id="34" depart="11.3322" fromJunction="3way_396" toJunction="4way_175"/>
<trip id="35" depart="11.6655" fromJunction="4way_127" toJunction="4way_198"/>
<trip id="36" depart="11.9988" fromJunction="4way_130" toJunction="4way_198"/>
<trip id="37" depart="12.332099999999999" fromJunction="3way_16" toJunction="4way_113"/>
<trip id="38" depart="12.6654" fromJunction="3way_387" toJunction="4way_83"/>
<trip id="39" depart="12.9987" fromJunction="3way_387" toJunction="4way_203"/>
<trip id="40" depart="13.331999999999999" fromJunction="4way_66" toJunction="4way_363"/>
<trip id="41" depart="13.6653" fromJunction="4way_112" toJunction="3way_179"/>
<trip id="42" depart="13.9986" fromJunction="4way_322" toJunction="4way_189"/>
<trip id="43" depart="14.3319" fromJunction="3way_397" toJunction="4way_208"/>
<trip id="44" depart="14.665199999999999" fromJunction="4way_197" toJunction="4way_269"/>
<trip id="45" depart="14.9985" fromJunction="4way_271" toJunction="4way_24"/>
<trip id="46" depart="15.3318" fromJunction="4way_292" toJunction="3way_382"/>
<trip id="47" depart="15.665099999999999" fromJunction="4way_21" toJunction="4way_143"/>
<trip id="48" depart="15.9984" fromJunction="3way_8" toJunction="4way_349"/>
<trip id="49" depart="16.331699999999998" fromJunction="3way_2" toJunction="4way_115"/>
<trip id="50" depart="16.665" fromJunction="4way_342" toJunction="4way_351"/>
<trip id="51" depart="16.9983" fromJunction="4way_98" toJunction="4way_93"/>
<trip id="52" depart="17.331599999999998" fromJunction="4way_269" toJunction="4way_182"/>
<trip id="53" depart="17.6649" fromJunction="4way_229" toJunction="4way_30"/>
<trip id="54" depart="17.9982" fromJunction="4way_377" toJunction="4way_341"/>
<trip id="55" depart="18.3315" fromJunction="4way_255" toJunction="4way_326"/>
<trip id="56" depart="18.6648" fromJunction="4way_203" toJunction="4way_152"/>
<trip id="57" depart="18.9981" fromJunction="4way_285" toJunction="4way_354"/>
<trip id="58" depart="19.3314" fromJunction="4way_309" toJunction="4way_156"/>
<trip id="59" depart="19.6647" fromJunction="4way_112" toJunction="4way_176"/>
<trip id="60" depart="19.997999999999998" fromJunction="4way_28" toJunction="4way_372"/>
<trip id="61" depart="20.3313" fromJunction="4way_91" toJunction="4way_38"/>
<trip id="62" depart="20.6646" fromJunction="4way_150" toJunction="4way_126"/>
<trip id="63" depart="20.997899999999998" fromJunction="4way_243" toJunction="3way_8"/>
<trip id="64" depart="21.3312" fromJunction="4way_143" toJunction="4way_211"/>
<trip id="65" depart="21.6645" fromJunction="4way_166" toJunction="4way_230"/>
<trip id="66" depart="21.997799999999998" fromJunction="4way_223" toJunction="3way_381"/>
<trip id="67" depart="22.3311" fromJunction="4way_369" toJunction="4way_209"/>
<trip id="68" depart="22.6644" fromJunction="4way_151" toJunction="4way_249"/>
<trip id="69" depart="22.9977" fromJunction="4way_186" toJunction="4way_151"/>
<trip id="70" depart="23.331" fromJunction="4way_45" toJunction="4way_296"/>
<trip id="71" depart="23.664299999999997" fromJunction="4way_256" toJunction="4way_226"/>
<trip id="72" depart="23.9976" fromJunction="4way_192" toJunction="4way_294"/>
<trip id="73" depart="24.3309" fromJunction="4way_117" toJunction="3way_395"/>
<trip id="74" depart="24.664199999999997" fromJunction="4way_378" toJunction="4way_272"/>
<trip id="75" depart="24.9975" fromJunction="4way_56" toJunction="3way_260"/>
<trip id="76" depart="25.3308" fromJunction="4way_210" toJunction="3way_160"/>
<trip id="77" depart="25.664099999999998" fromJunction="4way_255" toJunction="3way_385"/>
<trip id="78" depart="25.9974" fromJunction="4way_209" toJunction="4way_294"/>
<trip id="79" depart="26.3307" fromJunction="3way_219" toJunction="4way_365"/>
<trip id="80" depart="26.663999999999998" fromJunction="4way_366" toJunction="4way_152"/>
<trip id="81" depart="26.9973" fromJunction="4way_56" toJunction="4way_332"/>
<trip id="82" depart="27.3306" fromJunction="4way_315" toJunction="4way_198"/>
<trip id="83" depart="27.663899999999998" fromJunction="4way_344" toJunction="3way_5"/>
<trip id="84" depart="27.9972" fromJunction="3way_100" toJunction="4way_53"/>
<trip id="85" depart="28.330499999999997" fromJunction="3way_99" toJunction="4way_188"/>
<trip id="86" depart="28.6638" fromJunction="3way_8" toJunction="4way_161"/>
<trip id="87" depart="28.9971" fromJunction="4way_341" toJunction="4way_194"/>
<trip id="88" depart="29.330399999999997" fromJunction="4way_177" toJunction="4way_224"/>
<trip id="89" depart="29.6637" fromJunction="3way_13" toJunction="4way_192"/>
<trip id="90" depart="29.997" fromJunction="4way_270" toJunction="3way_140"/>
<trip id="91" depart="30.330299999999998" fromJunction="4way_102" toJunction="4way_269"/>
<trip id="92" depart="30.6636" fromJunction="4way_210" toJunction="4way_217"/>
<trip id="93" depart="30.9969" fromJunction="4way_369" toJunction="4way_308"/>
<trip id="94" depart="31.330199999999998" fromJunction="4way_323" toJunction="4way_53"/>
<trip id="95" depart="31.6635" fromJunction="4way_241" toJunction="4way_285"/>
<trip id="96" depart="31.9968" fromJunction="4way_297" toJunction="4way_41"/>
<trip id="97" depart="32.3301" fromJunction="4way_307" toJunction="4way_113"/>
<trip id="98" depart="32.663399999999996" fromJunction="4way_222" toJunction="4way_22"/>
<trip id="99" depart="32.9967" fromJunction="4way_226" toJunction="3way_119"/>
<trip id="100" depart="33.33" fromJunction="4way_132" toJunction="4way_323"/>
<trip id="101" depart="33.6633" fromJunction="3way_20" toJunction="4way_125"/>
<trip id="102" depart="33.9966" fromJunction="3way_199" toJunction="3way_10"/>
<trip id="103" depart="34.329899999999995" fromJunction="4way_366" toJunction="4way_371"/>
<trip id="104" depart="34.663199999999996" fromJunction="4way_296" toJunction="4way_308"/>
<trip id="105" depart="34.9965" fromJunction="4way_281" toJunction="4way_318"/>
<trip id="106" depart="35.3298" fromJunction="4way_302" toJunction="4way_231"/>
<trip id="107" depart="35.6631" fromJunction="4way_273" toJunction="3way_9"/>
<trip id="108" depart="35.9964" fromJunction="4way_165" toJunction="4way_24"/>
<trip id="109" depart="36.329699999999995" fromJunction="4way_135" toJunction="4way_349"/>
<trip id="110" depart="36.663" fromJunction="4way_96" toJunction="4way_330"/>
<trip id="111" depart="36.9963" fromJunction="4way_234" toJunction="4way_23"/>
<trip id="112" depart="37.3296" fromJunction="4way_377" toJunction="4way_41"/>
<trip id="113" depart="37.6629" fromJunction="4way_281" toJunction="4way_72"/>
<trip id="114" depart="37.9962" fromJunction="4way_53" toJunction="4way_337"/>
<trip id="115" depart="38.329499999999996" fromJunction="4way_261" toJunction="4way_222"/>
<trip id="116" depart="38.6628" fromJunction="3way_11" toJunction="4way_168"/>
<trip id="117" depart="38.9961" fromJunction="4way_146" toJunction="4way_221"/>
<trip id="118" depart="39.3294" fromJunction="4way_87" toJunction="4way_105"/>
<trip id="119" depart="39.6627" fromJunction="4way_349" toJunction="4way_43"/>
<trip id="120" depart="39.995999999999995" fromJunction="3way_388" toJunction="4way_36"/>
<trip id="121" depart="40.329299999999996" fromJunction="3way_382" toJunction="4way_148"/>
<trip id="122" depart="40.6626" fromJunction="4way_265" toJunction="4way_292"/>
<trip id="123" depart="40.9959" fromJunction="4way_21" toJunction="4way_169"/>
<trip id="124" depart="41.3292" fromJunction="4way_287" toJunction="3way_300"/>
<trip id="125" depart="41.6625" fromJunction="4way_277" toJunction="4way_304"/>
<trip id="126" depart="41.995799999999996" fromJunction="4way_193" toJunction="4way_333"/>
<trip id="127" depart="42.3291" fromJunction="3way_339" toJunction="4way_336"/>
<trip id="128" depart="42.6624" fromJunction="4way_329" toJunction="4way_69"/>
<trip id="129" depart="42.9957" fromJunction="4way_163" toJunction="4way_78"/>
<trip id="130" depart="43.329" fromJunction="3way_395" toJunction="4way_122"/>
<trip id="131" depart="43.662299999999995" fromJunction="4way_197" toJunction="3way_7"/>
<trip id="132" depart="43.995599999999996" fromJunction="4way_114" toJunction="4way_291"/>
<trip id="133" depart="44.3289" fromJunction="4way_349" toJunction="4way_83"/>
<trip id="134" depart="44.6622" fromJunction="4way_267" toJunction="3way_179"/>
<trip id="135" depart="44.9955" fromJunction="4way_136" toJunction="4way_218"/>
<trip id="136" depart="45.3288" fromJunction="4way_78" toJunction="4way_164"/>
<trip id="137" depart="45.662099999999995" fromJunction="4way_337" toJunction="4way_42"/>
<trip id="138" depart="45.9954" fromJunction="4way_234" toJunction="4way_277"/>
<trip id="139" depart="46.3287" fromJunction="4way_116" toJunction="4way_330"/>
<trip id="140" depart="46.662" fromJunction="4way_275" toJunction="4way_183"/>
<trip id="141" depart="46.9953" fromJunction="3way_6" toJunction="4way_230"/>
<trip id="142" depart="47.328599999999994" fromJunction="3way_280" toJunction="4way_244"/>
<trip id="143" depart="47.661899999999996" fromJunction="4way_207" toJunction="4way_238"/>
<trip id="144" depart="47.9952" fromJunction="4way_51" toJunction="4way_347"/>
<trip id="145" depart="48.3285" fromJunction="3way_360" toJunction="4way_45"/>
<trip id="146" depart="48.6618" fromJunction="4way_81" toJunction="4way_55"/>
<trip id="147" depart="48.9951" fromJunction="4way_341" toJunction="4way_108"/>
<trip id="148" depart="49.328399999999995" fromJunction="4way_375" toJunction="3way_396"/>
<trip id="149" depart="49.661699999999996" fromJunction="4way_78" toJunction="4way_178"/>
<trip id="150" depart="49.995" fromJunction="4way_34" toJunction="4way_356"/>
<trip id="151" depart="50.3283" fromJunction="3way_319" toJunction="4way_124"/>
<trip id="152" depart="50.6616" fromJunction="4way_42" toJunction="4way_365"/>
<trip id="153" depart="50.9949" fromJunction="3way_99" toJunction="3way_382"/>
<trip id="154" depart="51.328199999999995" fromJunction="3way_5" toJunction="4way_372"/>
<trip id="155" depart="51.6615" fromJunction="3way_280" toJunction="4way_373"/>
<trip id="156" depart="51.9948" fromJunction="3way_379" toJunction="3way_299"/>
<trip id="157" depart="52.3281" fromJunction="4way_162" toJunction="4way_311"/>
<trip id="158" depart="52.6614" fromJunction="4way_109" toJunction="4way_106"/>
<trip id="159" depart="52.994699999999995" fromJunction="4way_372" toJunction="4way_355"/>
<trip id="160" depart="53.327999999999996" fromJunction="3way_382" toJunction="4way_362"/>
<trip id="161" depart="53.6613" fromJunction="4way_243" toJunction="3way_99"/>
<trip id="162" depart="53.9946" fromJunction="4way_27" toJunction="4way_282"/>
<trip id="163" depart="54.3279" fromJunction="4way_132" toJunction="4way_32"/>
<trip id="164" depart="54.6612" fromJunction="4way_145" toJunction="4way_103"/>
<trip id="165" depart="54.994499999999995" fromJunction="4way_154" toJunction="3way_20"/>
<trip id="166" depart="55.327799999999996" fromJunction="4way_152" toJunction="3way_119"/>
<trip id="167" depart="55.6611" fromJunction="4way_54" toJunction="4way_74"/>
<trip id="168" depart="55.9944" fromJunction="4way_105" toJunction="4way_262"/>
<trip id="169" depart="56.3277" fromJunction="4way_23" toJunction="4way_349"/>
<trip id="170" depart="56.660999999999994" fromJunction="4way_141" toJunction="4way_65"/>
<trip id="171" depart="56.994299999999996" fromJunction="3way_18" toJunction="4way_67"/>
<trip id="172" depart="57.3276" fromJunction="3way_279" toJunction="4way_234"/>
<trip id="173" depart="57.6609" fromJunction="4way_283" toJunction="4way_168"/>
<trip id="174" depart="57.9942" fromJunction="4way_58" toJunction="4way_269"/>
<trip id="175" depart="58.3275" fromJunction="3way_15" toJunction="4way_91"/>
<trip id="176" depart="58.660799999999995" fromJunction="4way_88" toJunction="4way_186"/>
<trip id="177" depart="58.994099999999996" fromJunction="4way_371" toJunction="4way_308"/>
<trip id="178" depart="59.3274" fromJunction="3way_383" toJunction="4way_43"/>
<trip id="179" depart="59.6607" fromJunction="4way_38" toJunction="4way_245"/>
<trip id="180" depart="59.994" fromJunction="4way_336" toJunction="4way_61"/>
<trip id="181" depart="60.327299999999994" fromJunction="4way_27" toJunction="4way_368"/>
<trip id="182" depart="60.660599999999995" fromJunction="4way_47" toJunction="4way_176"/>
<trip id="183" depart="60.9939" fromJunction="4way_305" toJunction="4way_352"/>
<trip id="184" depart="61.3272" fromJunction="4way_92" toJunction="4way_356"/>
<trip id="185" depart="61.6605" fromJunction="4way_84" toJunction="4way_172"/>
<trip id="186" depart="61.9938" fromJunction="4way_370" toJunction="4way_253"/>
<trip id="187" depart="62.327099999999994" fromJunction="3way_180" toJunction="4way_122"/>
<trip id="188" depart="62.660399999999996" fromJunction="4way_58" toJunction="4way_214"/>
<trip id="189" depart="62.9937" fromJunction="4way_30" toJunction="4way_47"/>
<trip id="190" depart="63.327" fromJunction="4way_47" toJunction="4way_335"/>
<trip id="191" depart="63.6603" fromJunction="4way_249" toJunction="4way_357"/>
<trip id="192" depart="63.9936" fromJunction="4way_376" toJunction="4way_55"/>
<trip id="193" depart="64.3269" fromJunction="3way_180" toJunction="4way_354"/>
<trip id="194" depart="64.6602" fromJunction="4way_285" toJunction="4way_330"/>
<trip id="195" depart="64.9935" fromJunction="4way_126" toJunction="3way_159"/>
<trip id="196" depart="65.32679999999999" fromJunction="4way_275" toJunction="4way_262"/>
<trip id="197" depart="65.6601" fromJunction="4way_58" toJunction="3way_14"/>
<trip id="198" depart="65.9934" fromJunction="4way_324" toJunction="4way_304"/>
<trip id="199" depart="66.3267" fromJunction="4way_41" toJunction="3way_7"/>
<trip id="200" depart="66.66" fromJunction="4way_177" toJunction="4way_305"/>
<trip id="201" depart="66.99329999999999" fromJunction="4way_317" toJunction="3way_395"/>
<trip id="202" depart="67.3266" fromJunction="4way_366" toJunction="4way_76"/>
<trip id="203" depart="67.6599" fromJunction="4way_62" toJunction="4way_84"/>
<trip id="204" depart="67.9932" fromJunction="3way_14" toJunction="4way_210"/>
<trip id="205" depart="68.3265" fromJunction="4way_166" toJunction="3way_7"/>
<trip id="206" depart="68.65979999999999" fromJunction="4way_202" toJunction="3way_199"/>
<trip id="207" depart="68.9931" fromJunction="4way_222" toJunction="4way_321"/>
<trip id="208" depart="69.32639999999999" fromJunction="3way_5" toJunction="3way_383"/>
<trip id="209" depart="69.6597" fromJunction="4way_230" toJunction="3way_389"/>
<trip id="210" depart="69.993" fromJunction="4way_318" toJunction="4way_178"/>
<trip id="211" depart="70.3263" fromJunction="3way_160" toJunction="4way_365"/>
<trip id="212" depart="70.6596" fromJunction="4way_307" toJunction="4way_31"/>
<trip id="213" depart="70.99289999999999" fromJunction="3way_179" toJunction="4way_298"/>
<trip id="214" depart="71.3262" fromJunction="4way_143" toJunction="4way_114"/>
<trip id="215" depart="71.6595" fromJunction="4way_231" toJunction="4way_122"/>
<trip id="216" depart="71.9928" fromJunction="4way_251" toJunction="4way_162"/>
<trip id="217" depart="72.3261" fromJunction="4way_126" toJunction="4way_148"/>
<trip id="218" depart="72.65939999999999" fromJunction="4way_123" toJunction="4way_89"/>
<trip id="219" depart="72.9927" fromJunction="4way_66" toJunction="4way_212"/>
<trip id="220" depart="73.326" fromJunction="4way_115" toJunction="4way_344"/>
<trip id="221" depart="73.6593" fromJunction="3way_39" toJunction="4way_157"/>
<trip id="222" depart="73.9926" fromJunction="4way_264" toJunction="4way_62"/>
<trip id="223" depart="74.32589999999999" fromJunction="4way_278" toJunction="4way_354"/>
<trip id="224" depart="74.6592" fromJunction="4way_356" toJunction="4way_138"/>
<trip id="225" depart="74.99249999999999" fromJunction="4way_318" toJunction="4way_203"/>
<trip id="226" depart="75.3258" fromJunction="3way_393" toJunction="4way_182"/>
<trip id="227" depart="75.6591" fromJunction="4way_62" toJunction="4way_357"/>
<trip id="228" depart="75.9924" fromJunction="3way_139" toJunction="4way_92"/>
<trip id="229" depart="76.3257" fromJunction="4way_176" toJunction="4way_53"/>
<trip id="230" depart="76.65899999999999" fromJunction="4way_145" toJunction="4way_362"/>
<trip id="231" depart="76.9923" fromJunction="4way_193" toJunction="4way_105"/>
<trip id="232" depart="77.3256" fromJunction="3way_80" toJunction="4way_102"/>
<trip id="233" depart="77.6589" fromJunction="4way_263" toJunction="4way_326"/>
<trip id="234" depart="77.9922" fromJunction="4way_102" toJunction="4way_195"/>
<trip id="235" depart="78.32549999999999" fromJunction="4way_297" toJunction="4way_28"/>
<trip id="236" depart="78.6588" fromJunction="4way_56" toJunction="4way_370"/>
<trip id="237" depart="78.9921" fromJunction="4way_213" toJunction="4way_277"/>
<trip id="238" depart="79.3254" fromJunction="4way_138" toJunction="4way_172"/>
<trip id="239" depart="79.6587" fromJunction="4way_346" toJunction="4way_338"/>
<trip id="240" depart="79.99199999999999" fromJunction="4way_163" toJunction="3way_239"/>
<trip id="241" depart="80.3253" fromJunction="4way_86" toJunction="3way_240"/>
<trip id="242" depart="80.65859999999999" fromJunction="4way_130" toJunction="3way_383"/>
<trip id="243" depart="80.9919" fromJunction="4way_276" toJunction="4way_165"/>
<trip id="244" depart="81.3252" fromJunction="4way_29" toJunction="4way_138"/>
<trip id="245" depart="81.65849999999999" fromJunction="4way_30" toJunction="4way_23"/>
<trip id="246" depart="81.9918" fromJunction="4way_365" toJunction="4way_296"/>
<trip id="247" depart="82.32509999999999" fromJunction="4way_362" toJunction="4way_69"/>
<trip id="248" depart="82.6584" fromJunction="4way_325" toJunction="4way_27"/>
<trip id="249" depart="82.9917" fromJunction="4way_68" toJunction="4way_182"/>
<trip id="250" depart="83.325" fromJunction="4way_85" toJunction="4way_303"/>
<trip id="251" depart="83.6583" fromJunction="4way_213" toJunction="4way_208"/>
<trip id="252" depart="83.99159999999999" fromJunction="4way_137" toJunction="4way_144"/>
<trip id="253" depart="84.3249" fromJunction="3way_59" toJunction="4way_375"/>
<trip id="254" depart="84.6582" fromJunction="4way_306" toJunction="4way_222"/>
<trip id="255" depart="84.9915" fromJunction="4way_244" toJunction="3way_393"/>
<trip id="256" depart="85.3248" fromJunction="4way_371" toJunction="4way_133"/>
<trip id="257" depart="85.65809999999999" fromJunction="4way_252" toJunction="4way_270"/>
<trip id="258" depart="85.9914" fromJunction="4way_204" toJunction="4way_201"/>
<trip id="259" depart="86.32469999999999" fromJunction="4way_156" toJunction="4way_331"/>
<trip id="260" depart="86.658" fromJunction="4way_83" toJunction="4way_368"/>
<trip id="261" depart="86.9913" fromJunction="4way_252" toJunction="3way_12"/>
<trip id="262" depart="87.32459999999999" fromJunction="4way_85" toJunction="3way_4"/>
<trip id="263" depart="87.6579" fromJunction="4way_137" toJunction="4way_268"/>
<trip id="264" depart="87.99119999999999" fromJunction="4way_345" toJunction="3way_379"/>
<trip id="265" depart="88.3245" fromJunction="4way_204" toJunction="3way_10"/>
<trip id="266" depart="88.6578" fromJunction="4way_63" toJunction="4way_270"/>
<trip id="267" depart="88.9911" fromJunction="3way_389" toJunction="4way_241"/>
<trip id="268" depart="89.3244" fromJunction="4way_132" toJunction="4way_269"/>
<trip id="269" depart="89.65769999999999" fromJunction="4way_337" toJunction="4way_311"/>
<trip id="270" depart="89.991" fromJunction="4way_111" toJunction="3way_2"/>
<trip id="271" depart="90.3243" fromJunction="4way_369" toJunction="4way_90"/>
<trip id="272" depart="90.6576" fromJunction="3way_7" toJunction="4way_98"/>
<trip id="273" depart="90.9909" fromJunction="4way_354" toJunction="4way_132"/>
<trip id="274" depart="91.32419999999999" fromJunction="4way_144" toJunction="4way_88"/>
<trip id="275" depart="91.6575" fromJunction="3way_396" toJunction="4way_174"/>
<trip id="276" depart="91.9908" fromJunction="4way_168" toJunction="4way_286"/>
<trip id="277" depart="92.3241" fromJunction="3way_379" toJunction="4way_112"/>
<trip id="278" depart="92.6574" fromJunction="4way_26" toJunction="4way_22"/>
<trip id="279" depart="92.99069999999999" fromJunction="4way_216" toJunction="4way_270"/>
<trip id="280" depart="93.324" fromJunction="3way_382" toJunction="4way_250"/>
<trip id="281" depart="93.65729999999999" fromJunction="4way_96" toJunction="4way_238"/>
<trip id="282" depart="93.9906" fromJunction="4way_137" toJunction="4way_48"/>
<trip id="283" depart="94.3239" fromJunction="4way_137" toJunction="4way_348"/>
<trip id="284" depart="94.65719999999999" fromJunction="4way_138" toJunction="4way_115"/>
<trip id="285" depart="94.9905" fromJunction="3way_15" toJunction="4way_117"/>
<trip id="286" depart="95.32379999999999" fromJunction="4way_225" toJunction="3way_60"/>
<trip id="287" depart="95.6571" fromJunction="4way_223" toJunction="4way_377"/>
<trip id="288" depart="95.9904" fromJunction="4way_196" toJunction="3way_180"/>
<trip id="289" depart="96.3237" fromJunction="4way_376" toJunction="4way_306"/>
<trip id="290" depart="96.657" fromJunction="4way_211" toJunction="3way_180"/>
<trip id="291" depart="96.99029999999999" fromJunction="3way_279" toJunction="4way_266"/>
<trip id="292" depart="97.3236" fromJunction="4way_162" toJunction="4way_132"/>
<trip id="293" depart="97.6569" fromJunction="3way_139" toJunction="3way_16"/>
<trip id="294" depart="97.9902" fromJunction="4way_376" toJunction="3way_159"/>
<trip id="295" depart="98.3235" fromJunction="4way_296" toJunction="4way_113"/>
<trip id="296" depart="98.65679999999999" fromJunction="4way_248" toJunction="4way_311"/>
<trip id="297" depart="98.9901" fromJunction="4way_378" toJunction="4way_263"/>
<trip id="298" depart="99.32339999999999" fromJunction="4way_147" toJunction="4way_364"/>
<trip id="299" depart="99.6567" fromJunction="4way_218" toJunction="4way_125"/>
<trip id="300" depart="99.99" fromJunction="4way_84" toJunction="3way_60"/>
<trip id="301" depart="100.32329999999999" fromJunction="3way_179" toJunction="4way_371"/>
<trip id="302" depart="100.6566" fromJunction="4way_207" toJunction="4way_150"/>
<trip id="303" depart="100.98989999999999" fromJunction="4way_102" toJunction="4way_103"/>
<trip id="304" depart="101.3232" fromJunction="4way_45" toJunction="4way_128"/>
<trip id="305" depart="101.6565" fromJunction="4way_164" toJunction="4way_27"/>
<trip id="306" depart="101.9898" fromJunction="3way_382" toJunction="4way_158"/>
<trip id="307" depart="102.3231" fromJunction="4way_204" toJunction="3way_396"/>
<trip id="308" depart="102.65639999999999" fromJunction="4way_211" toJunction="4way_30"/>
<trip id="309" depart="102.9897" fromJunction="4way_378" toJunction="4way_285"/>
<trip id="310" depart="103.323" fromJunction="4way_332" toJunction="4way_284"/>
<trip id="311" depart="103.6563" fromJunction="4way_334" toJunction="4way_31"/>
<trip id="312" depart="103.9896" fromJunction="4way_236" toJunction="4way_198"/>
<trip id="313" depart="104.32289999999999" fromJunction="4way_152" toJunction="4way_313"/>
<trip id="314" depart="104.6562" fromJunction="3way_280" toJunction="4way_144"/>
<trip id="315" depart="104.98949999999999" fromJunction="4way_122" toJunction="3way_159"/>
<trip id="316" depart="105.3228" fromJunction="4way_188" toJunction="4way_206"/>
<trip id="317" depart="105.6561" fromJunction="4way_58" toJunction="4way_34"/>
<trip id="318" depart="105.98939999999999" fromJunction="3way_392" toJunction="3way_388"/>
<trip id="319" depart="106.3227" fromJunction="4way_173" toJunction="4way_369"/>
<trip id="320" depart="106.65599999999999" fromJunction="4way_237" toJunction="4way_255"/>
<trip id="321" depart="106.9893" fromJunction="4way_305" toJunction="4way_258"/>
<trip id="322" depart="107.3226" fromJunction="3way_280" toJunction="4way_145"/>
<trip id="323" depart="107.65589999999999" fromJunction="4way_191" toJunction="4way_52"/>
<trip id="324" depart="107.9892" fromJunction="3way_396" toJunction="4way_375"/>
<trip id="325" depart="108.32249999999999" fromJunction="4way_309" toJunction="4way_367"/>
<trip id="326" depart="108.6558" fromJunction="3way_120" toJunction="4way_122"/>
<trip id="327" depart="108.9891" fromJunction="3way_139" toJunction="4way_355"/>
<trip id="328" depart="109.3224" fromJunction="3way_389" toJunction="4way_147"/>
<trip id="329" depart="109.6557" fromJunction="4way_238" toJunction="4way_27"/>
<trip id="330" depart="109.98899999999999" fromJunction="4way_335" toJunction="4way_126"/>
<trip id="331" depart="110.3223" fromJunction="4way_362" toJunction="3way_388"/>
<trip id="332" depart="110.65559999999999" fromJunction="4way_305" toJunction="4way_325"/>
<trip id="333" depart="110.9889" fromJunction="4way_224" toJunction="4way_291"/>
<trip id="334" depart="111.3222" fromJunction="4way_51" toJunction="4way_272"/>
<trip id="335" depart="111.65549999999999" fromJunction="4way_186" toJunction="4way_305"/>
<trip id="336" depart="111.9888" fromJunction="3way_219" toJunction="4way_210"/>
<trip id="337" depart="112.32209999999999" fromJunction="4way_151" toJunction="4way_55"/>
<trip id="338" depart="112.6554" fromJunction="4way_308" toJunction="4way_372"/>
<trip id="339" depart="112.9887" fromJunction="4way_345" toJunction="3way_391"/>
<trip id="340" depart="113.32199999999999" fromJunction="4way_44" toJunction="4way_345"/>
<trip id="341" depart="113.6553" fromJunction="4way_93" toJunction="3way_12"/>
<trip id="342" depart="113.98859999999999" fromJunction="4way_150" toJunction="3way_391"/>
<trip id="343" depart="114.3219" fromJunction="4way_370" toJunction="4way_192"/>
<trip id="344" depart="114.6552" fromJunction="3way_394" toJunction="4way_58"/>
<trip id="345" depart="114.9885" fromJunction="3way_12" toJunction="4way_56"/>
<trip id="346" depart="115.3218" fromJunction="4way_345" toJunction="4way_288"/>
<trip id="347" depart="115.65509999999999" fromJunction="4way_25" toJunction="4way_208"/>
<trip id="348" depart="115.9884" fromJunction="3way_8" toJunction="4way_81"/>
<trip id="349" depart="116.32169999999999" fromJunction="4way_215" toJunction="4way_168"/>
<trip id="350" depart="116.655" fromJunction="4way_341" toJunction="4way_85"/>
<trip id="351" depart="116.9883" fromJunction="3way_339" toJunction="3way_299"/>
<trip id="352" depart="117.32159999999999" fromJunction="3way_395" toJunction="4way_321"/>
<trip id="353" depart="117.6549" fromJunction="3way_199" toJunction="4way_302"/>
<trip id="354" depart="117.98819999999999" fromJunction="4way_335" toJunction="3way_179"/>
<trip id="355" depart="118.3215" fromJunction="4way_129" toJunction="3way_160"/>
<trip id="356" depart="118.6548" fromJunction="4way_27" toJunction="4way_34"/>
<trip id="357" depart="118.98809999999999" fromJunction="4way_161" toJunction="3way_240"/>
<trip id="358" depart="119.3214" fromJunction="4way_248" toJunction="4way_206"/>
<trip id="359" depart="119.65469999999999" fromJunction="4way_94" toJunction="4way_264"/>
<trip id="360" depart="119.988" fromJunction="4way_177" toJunction="4way_213"/>
<trip id="361" depart="120.3213" fromJunction="4way_276" toJunction="3way_12"/>
<trip id="362" depart="120.65459999999999" fromJunction="4way_136" toJunction="4way_245"/>