<routes xmlns:xsi="http://www.w3.org/2001/XMLSchema-instance" xsi:noNamespaceSchemaLocation="http://sumo.dlr.de/xsd/routes_file.xsd">
<trip id="0" depart="0.0" fromJunction="4way_67" toJunction="4way_12"/>
<trip id="1" depart="0.2962" fromJunction="4way_65" toJunction="4way_48"/>
<trip id="2" depart="0.5924" fromJunction="4way_13" toJunction="4way_46"/>
<trip id="3" depart="0.8886000000000001" fromJunction="4way_60" toJunction="4way_55"/>
<trip id="4" depart="1.1848" fromJunction="4way_19" toJunction="4way_52"/>
<trip id="5" depart="1.481" fromJunction="4way_56" toJunction="4way_50"/>
<trip id="6" depart="1.7772000000000001" fromJunction="4way_25" toJunction="4way_21"/>
<trip id="7" depart="2.0734000000000004" fromJunction="3way_7" toJunction="3way_6"/>
<trip id="8" depart="2.3696" fromJunction="4way_24" toJunction="3way_2"/>
<trip id="9" depart="2.6658" fromJunction="4way_42" toJunction="4way_41"/>
<trip id="10" depart="2.962" fromJunction="4way_59" toJunction="4way_61"/>
<trip id="11" depart="3.2582000000000004" fromJunction="4way_50" toJunction="4way_11"/>
<trip id="12" depart="3.5544000000000002" fromJunction="4way_13" toJunction="3way_35"/>
<trip id="13" depart="3.8506" fromJunction="4way_34" toJunction="3way_53"/>
<trip id="14" depart="4.146800000000001" fromJunction="4way_37" toJunction="4way_56"/>
<trip id="15" depart="4.4430000000000005" fromJunction="4way_41" toJunction="3way_73"/>
<trip id="16" depart="4.7392" fromJunction="4way_21" toJunction="4way_11"/>
<trip id="17" depart="5.0354" fromJunction="4way_57" toJunction="3way_2"/>
<trip id="18" depart="5.3316" fromJunction="4way_40" toJunction="4way_34"/>
<trip id="19" depart="5.627800000000001" fromJunction="4way_55" toJunction="3way_9"/>
<trip id="20" depart="5.924" fromJunction="3way_5" toJunction="4way_49"/>
<trip id="21" depart="6.2202" fromJunction="3way_35" toJunction="3way_77"/>
<trip id="22" depart="6.516400000000001" fromJunction="4way_10" toJunction="3way_36"/>
<trip id="23" depart="6.812600000000001" fromJunction="4way_55" toJunction="4way_21"/>
<trip id="24" depart="7.1088000000000005" fromJunction="3way_17" toJunction="4way_70"/>
<trip id="25" depart="7.405" fromJunction="3way_62" toJunction="3way_77"/>
<trip id="26" depart="7.7012" fromJunction="3way_74" toJunction="4way_22"/>
<trip id="27" depart="7.997400000000001" fromJunction="3way_75" toJunction="4way_11"/>
<trip id="28" depart="8.293600000000001" fromJunction="3way_26" toJunction="3way_62"/>
<trip id="29" depart="8.5898" fromJunction="3way_44" toJunction="4way_22"/>
<trip id="30" depart="8.886000000000001" fromJunction="4way_10" toJunction="3way_78"/>
<trip id="31" depart="9.1822" fromJunction="3way_17" toJunction="4way_15"/>
<trip id="32" depart="9.4784" fromJunction="3way_17" toJunction="4way_24"/>
<trip id="33" depart="9.774600000000001" fromJunction="4way_20" toJunction="4way_61"/>
<trip id="34" depart="10.0708" fromJunction="4way_48" toJunction="4way_61"/>
<trip id="35" depart="10.367" fromJunction="3way_4" toJunction="4way_14"/>
<trip id="36" depart="10.6632" fromJunction="3way_35" toJunction="3way_63"/>
<trip id="37" depart="10.9594" fromJunction="3way_35" toJunction="3way_54"/>
<trip id="38" depart="11.255600000000001" fromJunction="4way_37" toJunction="3way_36"/>
<trip id="39" depart="11.5518" fromJunction="4way_49" toJunction="3way_5"/>
<trip id="40" depart="11.848" fromJunction="3way_73" toJunction="4way_21"/>
<trip id="41" depart="12.144200000000001" fromJunction="3way_17" toJunction="4way_56"/>
<trip id="42" depart="12.4404" fromJunction="4way_25" toJunction="4way_30"/>
<trip id="43" depart="12.736600000000001" fromJunction="4way_31" toJunction="3way_36"/>
<trip id="44" depart="13.032800000000002" fromJunction="4way_67" toJunction="3way_44"/>
<trip id="45" depart="13.329" fromJunction="3way_79" toJunction="3way_54"/>
<trip id="46" depart="13.625200000000001" fromJunction="3way_2" toJunction="4way_39"/>
<trip id="47" depart="13.9214" fromJunction="3way_1" toJunction="4way_15"/>
<trip id="48" depart="14.217600000000001" fromJunction="3way_73" toJunction="4way_40"/>
<trip id="49" depart="14.513800000000002" fromJunction="4way_52" toJunction="4way_14"/>
<trip id="50" depart="14.81" fromJunction="4way_30" toJunction="3way_74"/>
<trip id="51" depart="15.106200000000001" fromJunction="4way_30" toJunction="4way_39"/>
<trip id="52" depart="15.4024" fromJunction="4way_43" toJunction="3way_76"/>
<trip id="53" depart="15.6986" fromJunction="4way_33" toJunction="4way_64"/>
<trip id="54" depart="15.994800000000001" fromJunction="3way_54" toJunction="4way_49"/>
<trip id="55" depart="16.291" fromJunction="4way_28" toJunction="4way_68"/>
<trip id="56" depart="16.587200000000003" fromJunction="4way_30" toJunction="4way_51"/>
<trip id="57" depart="16.8834" fromJunction="4way_49" toJunction="4way_51"/>
<trip id="58" depart="17.1796" fromJunction="4way_38" toJunction="4way_67"/>
<trip id="59" depart="17.4758" fromJunction="4way_13" toJunction="4way_43"/>
<trip id="60" depart="17.772000000000002" fromJunction="4way_48" toJunction="4way_46"/>
<trip id="61" depart="18.0682" fromJunction="3way_45" toJunction="3way_2"/>
<trip id="62" depart="18.3644" fromJunction="3way_54" toJunction="4way_22"/>
<trip id="63" depart="18.660600000000002" fromJunction="4way_55" toJunction="4way_57"/>
<trip id="64" depart="18.9568" fromJunction="3way_54" toJunction="3way_44"/>
<trip id="65" depart="19.253" fromJunction="4way_39" toJunction="4way_21"/>
<trip id="66" depart="19.549200000000003" fromJunction="4way_22" toJunction="4way_30"/>
<trip id="67" depart="19.8454" fromJunction="4way_55" toJunction="4way_22"/>
<trip id="68" depart="20.1416" fromJunction="4way_10" toJunction="4way_69"/>
<trip id="69" depart="20.437800000000003" fromJunction="4way_60" toJunction="4way_55"/>
<trip id="70" depart="20.734" fromJunction="4way_58" toJunction="4way_68"/>
<trip id="71" depart="21.0302" fromJunction="4way_16" toJunction="3way_17"/>
<trip id="72" depart="21.3264" fromJunction="4way_70" toJunction="4way_58"/>
<trip id="73" depart="21.622600000000002" fromJunction="4way_42" toJunction="3way_53"/>
<trip id="74" depart="21.9188" fromJunction="4way_57" toJunction="3way_62"/>
<trip id="75" depart="22.215" fromJunction="4way_33" toJunction="3way_35"/>
<trip id="76" depart="22.511200000000002" fromJunction="4way_21" toJunction="4way_68"/>
<trip id="77" depart="22.8074" fromJunction="3way_6" toJunction="4way_37"/>
<trip id="78" depart="23.1036" fromJunction="4way_64" toJunction="4way_49"/>
<trip id="79" depart="23.399800000000003" fromJunction="4way_42" toJunction="4way_67"/>
<trip id="80" depart="23.696" fromJunction="4way_33" toJunction="4way_61"/>
<trip id="81" depart="23.9922" fromJunction="3way_9" toJunction="3way_1"/>
<trip id="82" depart="24.288400000000003" fromJunction="3way_71" toJunction="4way_14"/>
<trip id="83" depart="24.584600000000002" fromJunction="3way_5" toJunction="4way_56"/>
<trip id="84" depart="24.8808" fromJunction="3way_2" toJunction="3way_78"/>
<trip id="85" depart="25.177000000000003" fromJunction="3way_76" toJunction="4way_59"/>
<trip id="86" depart="25.473200000000002" fromJunction="4way_25" toJunction="3way_18"/>
<trip id="87" depart="25.7694" fromJunction="3way_3" toJunction="4way_58"/>
<trip id="88" depart="26.065600000000003" fromJunction="4way_57" toJunction="3way_62"/>
<trip id="89" depart="26.361800000000002" fromJunction="3way_75" toJunction="4way_30"/>
<trip id="90" depart="26.658" fromJunction="4way_57" toJunction="4way_25"/>
<trip id="91" depart="26.9542" fromJunction="4way_39" toJunction="4way_65"/>
<trip id="92" depart="27.250400000000003" fromJunction="3way_36" toJunction="4way_14"/>
<trip id="93" depart="27.5466" fromJunction="3way_77" toJunction="4way_28"/>
<trip id="94" depart="27.8428" fromJunction="4way_34" toJunction="3way_79"/>
<trip id="95" depart="28.139000000000003" fromJunction="4way_29" toJunction="4way_14"/>
<trip id="96" depart="28.435200000000002" fromJunction="3way_74" toJunction="3way_76"/>
<trip id="97" depart="28.7314" fromJunction="4way_55" toJunction="3way_5"/>
<trip id="98" depart="29.027600000000003" fromJunction="4way_49" toJunction="3way_36"/>
<trip id="99" depart="29.323800000000002" fromJunction="3way_71" toJunction="4way_19"/>
<trip id="100" depart="29.62" fromJunction="3way_6" toJunction="3way_2"/>
<trip id="101" depart="29.916200000000003" fromJunction="4way_64" toJunction="4way_40"/>
<trip id="102" depart="30.212400000000002" fromJunction="4way_69" toJunction="4way_65"/>
<trip id="103" depart="30.5086" fromJunction="3way_77" toJunction="4way_70"/>
<trip id="104" depart="30.8048" fromJunction="3way_73" toJunction="4way_31"/>
<trip id="105" depart="31.101000000000003" fromJunction="4way_32" toJunction="3way_2"/>
<trip id="106" depart="31.3972" fromJunction="4way_19" toJunction="3way_36"/>
<trip id="107" depart="31.6934" fromJunction="4way_15" toJunction="4way_39"/>
<trip id="108" depart="31.989600000000003" fromJunction="4way_51" toJunction="4way_66"/>
<trip id="109" depart="32.2858" fromJunction="4way_59" toJunction="3way_63"/>
<trip id="110" depart="32.582" fromJunction="4way_43" toJunction="3way_79"/>
<trip id="111" depart="32.8782" fromJunction="3way_77" toJunction="4way_40"/>
<trip id="112" depart="33.174400000000006" fromJunction="4way_14" toJunction="4way_34"/>
<trip id="113" depart="33.470600000000005" fromJunction="3way_77" toJunction="3way_74"/>
<trip id="114" depart="33.7668" fromJunction="3way_2" toJunction="4way_47"/>
<trip id="115" depart="34.063" fromJunction="4way_46" toJunction="3way_78"/>
<trip id="116" depart="34.3592" fromJunction="4way_11" toJunction="4way_10"/>
<trip id="117" depart="34.6554" fromJunction="4way_39" toJunction="3way_63"/>
<trip id="118" depart="34.9516" fromJunction="3way_35" toJunction="4way_42"/>
<trip id="119" depart="35.247800000000005" fromJunction="3way_44" toJunction="4way_47"/>
<trip id="120" depart="35.544000000000004" fromJunction="4way_28" toJunction="4way_67"/>
<trip id="121" depart="35.8402" fromJunction="3way_79" toJunction="4way_21"/>
<trip id="122" depart="36.1364" fromJunction="4way_29" toJunction="3way_53"/>
<trip id="123" depart="36.4326" fromJunction="4way_34" toJunction="3way_9"/>
<trip id="124" depart="36.7288" fromJunction="4way_23" toJunction="4way_32"/>
<trip id="125" depart="37.025000000000006" fromJunction="3way_7" toJunction="4way_69"/>
<trip id="126" depart="37.321200000000005" fromJunction="4way_39" toJunction="4way_12"/>
<trip id="127" depart="37.6174" fromJunction="3way_54" toJunction="4way_52"/>
<trip id="128" depart="37.9136" fromJunction="3way_17" toJunction="3way_75"/>
<trip id="129" depart="38.2098" fromJunction="4way_25" toJunction="3way_2"/>
<trip id="130" depart="38.506" fromJunction="4way_50" toJunction="4way_31"/>
<trip id="131" depart="38.8022" fromJunction="4way_39" toJunction="3way_63"/>
<trip id="132" depart="39.098400000000005" fromJunction="4way_29" toJunction="3way_5"/>
<trip id="133" depart="39.394600000000004" fromJunction="4way_51" toJunction="4way_61"/>
<trip id="134" depart="39.6908" fromJunction="4way_52" toJunction="3way_18"/>
<trip id="135" depart="39.987" fromJunction="4way_43" toJunction="3way_76"/>
<trip id="136" depart="40.2832" fromJunction="4way_59" toJunction="4way_34"/>
<trip id="137" depart="40.5794" fromJunction="4way_51" toJunction="4way_66"/>
<trip id="138" depart="40.875600000000006" fromJunction="4way_33" toJunction="3way_54"/>
<trip id="139" depart="41.171800000000005" fromJunction="3way_2" toJunction="4way_57"/>
<trip id="140" depart="41.468" fromJunction="3way_53" toJunction="3way_18"/>
<trip id="141" depart="41.7642" fromJunction="4way_20" toJunction="4way_61"/>
<trip id="142" depart="42.0604" fromJunction="4way_13" toJunction="4way_38"/>
<trip id="143" depart="42.3566" fromJunction="3way_44" toJunction="4way_10"/>
<trip id="144" depart="42.6528" fromJunction="3way_79" toJunction="4way_15"/>
<trip id="145" depart="42.949000000000005" fromJunction="3way_76" toJunction="4way_47"/>
<trip id="146" depart="43.245200000000004" fromJunction="4way_42" toJunction="3way_17"/>
<trip id="147" depart="43.5414" fromJunction="4way_43" toJunction="4way_52"/>
<trip id="148" depart="43.8376" fromJunction="4way_41" toJunction="4way_69"/>
<trip id="149" depart="44.1338" fromJunction="3way_7" toJunction="3way_27"/>
<trip id="150" depart="44.43" fromJunction="3way_76" toJunction="4way_37"/>
<trip id="151" depart="44.726200000000006" fromJunction="3way_5" toJunction="3way_44"/>
<trip id="152" depart="45.022400000000005" fromJunction="3way_1" toJunction="4way_67"/>
<trip id="153" depart="45.3186" fromJunction="3way_53" toJunction="4way_41"/>
<trip id="154" depart="45.6148" fromJunction="3way_75" toJunction="4way_31"/>
<trip id="155" depart="45.911" fromJunction="4way_12" toJunction="4way_46"/>
<trip id="156" depart="46.2072" fromJunction="4way_67" toJunction="4way_42"/>
<trip id="157" depart="46.503400000000006" fromJunction="3way_44" toJunction="3way_73"/>
<trip id="158" depart="46.799600000000005" fromJunction="3way_45" toJunction="3way_5"/>
<trip id="159" depart="47.095800000000004" fromJunction="4way_11" toJunction="3way_73"/>
<trip id="160" depart="47.392" fromJunction="4way_49" toJunction="4way_40"/>
<trip id="161" depart="47.6882" fromJunction="4way_19" toJunction="3way_63"/>
<trip id="162" depart="47.9844" fromJunction="4way_50" toJunction="3way_71"/>
<trip id="163" depart="48.2806" fromJunction="4way_49" toJunction="3way_5"/>
<trip id="164" depart="48.576800000000006" fromJunction="4way_10" toJunction="3way_74"/>
<trip id="165" depart="48.873000000000005" fromJunction="3way_63" toJunction="4way_39"/>
<trip id="166" depart="49.169200000000004" fromJunction="3way_78" toJunction="4way_10"/>
<trip id="167" depart="49.4654" fromJunction="3way_4" toJunction="4way_11"/>
<trip id="168" depart="49.7616" fromJunction="3way_6" toJunction="4way_59"/>
<trip id="169" depart="50.0578" fromJunction="3way_45" toJunction="4way_47"/>
<trip id="170" depart="50.354000000000006" fromJunction="4way_43" toJunction="4way_30"/>
<trip id="171" depart="50.650200000000005" fromJunction="3way_3" toJunction="4way_13"/>
<trip id="172" depart="50.946400000000004" fromJunction="4way_47" toJunction="4way_55"/>
<trip id="173" depart="51.2426" fromJunction="4way_40" toJunction="4way_65"/>
<trip id="174" depart="51.5388" fromJunction="3way_35" toJunction="3way_63"/>
<trip id="175" depart="51.835" fromJunction="4way_43" toJunction="4way_28"/>
<trip id="176" depart="52.13120000000001" fromJunction="4way_69" toJunction="3way_79"/>
<trip id="177" depart="52.427400000000006" fromJunction="4way_11" toJunction="4way_65"/>
<trip id="178" depart="52.723600000000005" fromJunction="4way_11" toJunction="4way_51"/>
<trip id="179" depart="53.019800000000004" fromJunction="4way_28" toJunction="4way_67"/>
<trip id="180" depart="53.316" fromJunction="4way_49" toJunction="4way_69"/>
<trip id="181" depart="53.6122" fromJunction="3way_27" toJunction="4way_49"/>
<trip id="182" depart="53.9084" fromJunction="4way_66" toJunction="4way_32"/>
<trip id="183" depart="54.204600000000006" fromJunction="3way_62" toJunction="3way_75"/>
<trip id="184" depart="54.500800000000005" fromJunction="4way_43" toJunction="4way_59"/>
<trip id="185" depart="54.797000000000004" fromJunction="4way_39" toJunction="4way_11"/>
<trip id="186" depart="55.0932" fromJunction="4way_11" toJunction="4way_42"/>
<trip id="187" depart="55.3894" fromJunction="4way_30" toJunction="4way_43"/>
<trip id="188" depart="55.6856" fromJunction="4way_69" toJunction="4way_15"/>
<trip id="189" depart="55.98180000000001" fromJunction="3way_62" toJunction="4way_68"/>
<trip id="190" depart="56.278000000000006" fromJunction="4way_28" toJunction="4way_66"/>
<trip id="191" depart="56.574200000000005" fromJunction="4way_46" toJunction="3way_5"/>
<trip id="192" depart="56.870400000000004" fromJunction="4way_33" toJunction="3way_74"/>
<trip id="193" depart="57.1666" fromJunction="4way_43" toJunction="3way_3"/>
<trip id="194" depart="57.4628" fromJunction="3way_79" toJunction="3way_2"/>
<trip id="195" depart="57.759" fromJunction="4way_25" toJunction="4way_28"/>
<trip id="196" depart="58.055200000000006" fromJunction="4way_34" toJunction="3way_17"/>
<trip id="197" depart="58.351400000000005" fromJunction="4way_64" toJunction="4way_42"/>
<trip id="198" depart="58.647600000000004" fromJunction="3way_76" toJunction="3way_27"/>
<trip id="199" depart="58.9438" fromJunction="3way_3" toJunction="4way_57"/>
<trip id="200" depart="59.24" fromJunction="4way_55" toJunction="3way_2"/>
<trip id="201" depart="59.5362" fromJunction="3way_74" toJunction="3way_6"/>
<trip id="202" depart="59.83240000000001" fromJunction="3way_74" toJunction="3way_76"/>
<trip id="203" depart="60.128600000000006" fromJunction="3way_1" toJunction="3way_44"/>
<trip id="204" depart="60.424800000000005" fromJunction="4way_57" toJunction="3way_26"/>
<trip id="205" depart="60.721000000000004" fromJunction="4way_70" toJunction="4way_61"/>
<trip id="206" depart="61.0172" fromJunction="3way_62" toJunction="4way_37"/>
<trip id="207" depart="61.3134" fromJunction="4way_29" toJunction="4way_13"/>
<trip id="208" depart="61.6096" fromJunction="3way_6" toJunction="4way_70"/>
<trip id="209" depart="61.905800000000006" fromJunction="3way_54" toJunction="4way_50"/>
<trip id="210" depart="62.202000000000005" fromJunction="4way_31" toJunction="3way_75"/>
<trip id="211" depart="62.498200000000004" fromJunction="4way_31" toJunction="3way_75"/>
<trip id="212" depart="62.7944" fromJunction="4way_46" toJunction="4way_47"/>
<trip id="213" depart="63.0906" fromJunction="3way_54" toJunction="4way_12"/>
<trip id="214" depart="63.3868" fromJunction="4way_37" toJunction="4way_58"/>
<trip id="215" depart="63.68300000000001" fromJunction="4way_15" toJunction="3way_9"/>
<trip id="216" depart="63.979200000000006" fromJunction="3way_4" toJunction="4way_25"/>
<trip id="217" depart="64.2754" fromJunction="3way_18" toJunction="3way_76"/>
<trip id="218" depart="64.5716" fromJunction="4way_61" toJunction="4way_68"/>
<trip id="219" depart="64.8678" fromJunction="4way_69" toJunction="4way_52"/>
<trip id="220" depart="65.164" fromJunction="4way_70" toJunction="3way_54"/>
<trip id="221" depart="65.4602" fromJunction="3way_26" toJunction="3way_74"/>
<trip id="222" depart="65.7564" fromJunction="3way_76" toJunction="4way_43"/>
<trip id="223" depart="66.0526" fromJunction="3way_5" toJunction="4way_49"/>
<trip id="224" depart="66.34880000000001" fromJunction="4way_51" toJunction="4way_14"/>
<trip id="225" depart="66.64500000000001" fromJunction="4way_19" toJunction="3way_73"/>
<trip id="226" depart="66.94120000000001" fromJunction="4way_23" toJunction="4way_10"/>
<trip id="227" depart="67.23740000000001" fromJunction="3way_71" toJunction="3way_75"/>
<trip id="228" depart="67.5336" fromJunction="3way_45" toJunction="4way_64"/>
<trip id="229" depart="67.8298" fromJunction="3way_75" toJunction="4way_24"/>
<trip id="230" depart="68.126" fromJunction="4way_34" toJunction="4way_38"/>
<trip id="231" depart="68.4222" fromJunction="4way_42" toJunction="4way_66"/>
<trip id="232" depart="68.7184" fromJunction="4way_23" toJunction="4way_34"/>
<trip id="233" depart="69.0146" fromJunction="4way_52" toJunction="4way_49"/>
<trip id="234" depart="69.3108" fromJunction="4way_64" toJunction="4way_70"/>
<trip id="235" depart="69.607" fromJunction="3way_54" toJunction="3way_6"/>
<trip id="236" depart="69.9032" fromJunction="4way_46" toJunction="3way_53"/>
<trip id="237" depart="70.19940000000001" fromJunction="4way_48" toJunction="3way_44"/>
<trip id="238" depart="70.49560000000001" fromJunction="4way_60" toJunction="4way_19"/>
<trip id="239" depart="70.79180000000001" fromJunction="4way_12" toJunction="4way_52"/>
<trip id="240" depart="71.08800000000001" fromJunction="4way_39" toJunction="3way_63"/>
<trip id="241" depart="71.3842" fromJunction="4way_37" toJunction="4way_69"/>
<trip id="242" depart="71.6804" fromJunction="3way_73" toJunction="4way_12"/>
<trip id="243" depart="71.9766" fromJunction="4way_28" toJunction="4way_11"/>
<trip id="244" depart="72.2728" fromJunction="4way_38" toJunction="3way_74"/>
<trip id="245" depart="72.569" fromJunction="4way_10" toJunction="3way_45"/>
<trip id="246" depart="72.8652" fromJunction="4way_23" toJunction="4way_56"/>
<trip id="247" depart="73.1614" fromJunction="4way_25" toJunction="3way_27"/>
<trip id="248" depart="73.4576" fromJunction="3way_4" toJunction="4way_42"/>
<trip id="249" depart="73.7538" fromJunction="4way_64" toJunction="3way_74"/>
<trip id="250" depart="74.05000000000001" fromJunction="3way_18" toJunction="3way_26"/>
<trip id="251" depart="74.34620000000001" fromJunction="4way_40" toJunction="4way_14"/>
<trip id="252" depart="74.64240000000001" fromJunction="4way_58" toJunction="4way_57"/>
<trip id="253" depart="74.93860000000001" fromJunction="3way_18" toJunction="3way_78"/>
<trip id="254" depart="75.2348" fromJunction="4way_51" toJunction="4way_40"/>
<trip id="255" depart="75.531" fromJunction="3way_63" toJunction="4way_65"/>
<trip id="256" depart="75.8272" fromJunction="4way_58" toJunction="3way_3"/>
<trip id="257" depart="76.1234" fromJunction="4way_10" toJunction="3way_1"/>
<trip id="258" depart="76.4196" fromJunction="4way_25" toJunction="4way_56"/>
<trip id="259" depart="76.7158" fromJunction="4way_37" toJunction="3way_7"/>
<trip id="260" depart="77.012" fromJunction="3way_18" toJunction="3way_2"/>
<trip id="261" depart="77.3082" fromJunction="3way_63" toJunction="4way_57"/>
<trip id="262" depart="77.6044" fromJunction="3way_26" toJunction="3way_77"/>
<trip id="263" depart="77.90060000000001" fromJunction="4way_49" toJunction="4way_30"/>
<trip id="264" depart="78.19680000000001" fromJunction="4way_43" toJunction="4way_31"/>
<trip id="265" depart="78.49300000000001" fromJunction="4way_13" toJunction="3way_1"/>
<trip id="266" depart="78.78920000000001" fromJunction="4way_39" toJunction="4way_48"/>
<trip id="267" depart="79.0854" fromJunction="3way_2" toJunction="4way_52"/>
<trip id="268" depart="79.3816" fromJunction="4way_68" toJunction="4way_49"/>
<trip id="269" depart="79.6778" fromJunction="3way_27" toJunction="4way_47"/>
<trip id="270" depart="79.974" fromJunction="3way_17" toJunction="4way_50"/>
<trip id="271" depart="80.2702" fromJunction="4way_56" toJunction="4way_64"/>
<trip id="272" depart="80.5664" fromJunction="3way_7" toJunction="4way_49"/>
<trip id="273" depart="80.8626" fromJunction="4way_37" toJunction="3way_76"/>
<trip id="274" depart="81.1588" fromJunction="4way_60" toJunction="4way_57"/>
<trip id="275" depart="81.455" fromJunction="3way_44" toJunction="4way_57"/>
<trip id="276" depart="81.75120000000001" fromJunction="4way_51" toJunction="4way_61"/>
<trip id="277" depart="82.04740000000001" fromJunction="4way_25" toJunction="4way_38"/>
<trip id="278" depart="82.34360000000001" fromJunction="4way_25" toJunction="4way_65"/>
<trip id="279" depart="82.63980000000001" fromJunction="4way_52" toJunction="4way_15"/>
<trip id="280" depart="82.936" fromJunction="3way_3" toJunction="4way_16"/>
<trip id="281" depart="83.2322" fromJunction="4way_19" toJunction="3way_71"/>
<trip id="282" depart="83.5284" fromJunction="3way_45" toJunction="4way_43"/>
<trip id="283" depart="83.8246" fromJunction="4way_60" toJunction="3way_62"/>
<trip id="284" depart="84.1208" fromJunction="4way_69" toJunction="4way_64"/>
<trip id="285" depart="84.417" fromJunction="4way_22" toJunction="3way_62"/>
<trip id="286" depart="84.7132" fromJunction="3way_6" toJunction="4way_55"/>
<trip id="287" depart="85.0094" fromJunction="3way_74" toJunction="4way_49"/>
<trip id="288" depart="85.3056" fromJunction="3way_5" toJunction="3way_4"/>
<trip id="289" depart="85.60180000000001" fromJunction="4way_69" toJunction="3way_5"/>
<trip id="290" depart="85.89800000000001" fromJunction="4way_69" toJunction="4way_14"/>
<trip id="291" depart="86.19420000000001" fromJunction="4way_56" toJunction="4way_31"/>
<trip id="292" depart="86.49040000000001" fromJunction="4way_70" toJunction="3way_45"/>
<trip id="293" depart="86.7866" fromJunction="4way_20" toJunction="3way_9"/>
<trip id="294" depart="87.0828" fromJunction="4way_61" toJunction="4way_19"/>
<trip id="295" depart="87.379" fromJunction="3way_27" toJunction="3way_71"/>
<trip id="296" depart="87.6752" fromJunction="3way_5" toJunction="4way_40"/>
<trip id="297" depart="87.9714" fromJunction="4way_20" toJunction="4way_48"/>
<trip id="298" depart="88.2676" fromJunction="3way_75" toJunction="3way_63"/>
<trip id="299" depart="88.5638" fromJunction="4way_10" toJunction="4way_47"/>
<trip id="300" depart="88.86" fromJunction="3way_27" toJunction="4way_11"/>
<trip id="301" depart="89.15620000000001" fromJunction="3way_44" toJunction="4way_52"/>
<trip id="302" depart="89.45240000000001" fromJunction="3way_18" toJunction="3way_17"/>
<trip id="303" depart="89.74860000000001" fromJunction="4way_22" toJunction="4way_39"/>
<trip id="304" depart="90.04480000000001" fromJunction="4way_70" toJunction="4way_28"/>
<trip id="305" depart="90.34100000000001" fromJunction="4way_67" toJunction="3way_9"/>
<trip id="306" depart="90.6372" fromJunction="4way_68" toJunction="4way_13"/>
<trip id="307" depart="90.9334" fromJunction="4way_60" toJunction="4way_61"/>
<trip id="308" depart="91.2296" fromJunction="4way_49" toJunction="4way_32"/>
<trip id="309" depart="91.5258" fromJunction="3way_53" toJunction="3way_27"/>
<trip id="310" depart="91.822" fromJunction="3way_75" toJunction="3way_5"/>
<trip id="311" depart="92.1182" fromJunction="4way_56" toJunction="4way_55"/>
<trip id="312" depart="92.4144" fromJunction="4way_43" toJunction="4way_41"/>
<trip id="313" depart="92.7106" fromJunction="3way_26" toJunction="3way_35"/>
<trip id="314" depart="93.00680000000001" fromJunction="4way_23" toJunction="4way_39"/>
<trip id="315" depart="93.30300000000001" fromJunction="4way_34" toJunction="4way_33"/>
<trip id="316" depart="93.59920000000001" fromJunction="4way_28" toJunction="4way_61"/>
<trip id="317" depart="93.89540000000001" fromJunction="3way_53" toJunction="4way_19"/>
<trip id="318" depart="94.19160000000001" fromJunction="4way_22" toJunction="4way_40"/>
<trip id="319" depart="94.48780000000001" fromJunction="3way_17" toJunction="4way_42"/>
<trip id="320" depart="94.784" fromJunction="4way_30" toJunction="4way_38"/>
<trip id="321" depart="95.0802" fromJunction="3way_71" toJunction="3way_75"/>
<trip id="322" depart="95.3764" fromJunction="3way_5" toJunction="4way_42"/>
<trip id="323" depart="95.6726" fromJunction="3way_26" toJunction="4way_20"/>
<trip id="324" depart="95.9688" fromJunction="4way_61" toJunction="4way_11"/>
<trip id="325" depart="96.265" fromJunction="4way_33" toJunction="4way_46"/>
<trip id="326" depart="96.5612" fromJunction="3way_73" toJunction="3way_35"/>
<trip id="327" depart="96.85740000000001" fromJunction="4way_28" toJunction="4way_37"/>
<trip id="328" depart="97.15360000000001" fromJunction="3way_18" toJunction="4way_31"/>
<trip id="329" depart="97.44980000000001" fromJunction="4way_13" toJunction="4way_58"/>
<trip id="330" depart="97.74600000000001" fromJunction="4way_55" toJunction="4way_28"/>
<trip id="331" depart="98.04220000000001" fromJunction="3way_6" toJunction="4way_57"/>
<trip id="332" depart="98.33840000000001" fromJunction="4way_22" toJunction="4way_15"/>
<trip id="333" depart="98.6346" fromJunction="4way_65" toJunction="4way_67"/>
<trip id="334" depart="98.9308" fromJunction="4way_37" toJunction="3way_26"/>
<trip id="335" depart="99.227" fromJunction="3way_36" toJunction="4way_37"/>
<trip id="336" depart="99.5232" fromJunction="4way_14" toJunction="3way_3"/>
<trip id="337" depart="99.8194" fromJunction="4way_48" toJunction="3way_26"/>
<trip id="338" depart="100.1156" fromJunction="4way_66" toJunction="4way_58"/>
<trip id="339" depart="100.4118" fromJunction="3way_17" toJunction="4way_43"/>
<trip id="340" depart="100.70800000000001" fromJunction="3way_3" toJunction="4way_42"/>
<trip id="341" depart="101.00420000000001" fromJunction="4way_37" toJunction="4way_65"/>
<trip id="342" depart="101.30040000000001" fromJunction="4way_10" toJunction="4way_56"/>
<trip id="343" depart="101.59660000000001" fromJunction="3way_2" toJunction="3way_79"/>
<trip id="344" depart="101.89280000000001" fromJunction="4way_24" toJunction="4way_47"/>
<trip id="345" depart="102.18900000000001" fromJunction="3way_76" toJunction="4way_10"/>
<trip id="346" depart="102.4852" fromJunction="3way_17" toJunction="3way_76"/>
<trip id="347" depart="102.7814" fromJunction="3way_6" toJunction="3way_73"/>
<trip id="348" depart="103.0776" fromJunction="4way_33" toJunction="3way_6"/>
<trip id="349" depart="103.3738" fromJunction="4way_21" toJunction="3way_62"/>
<trip id="350" depart="103.67" fromJunction="4way_11" toJunction="4way_41"/>
<trip id="351" depart="103.9662" fromJunction="3way_78" toJunction="3way_53"/>
<trip id="352" depart="104.26240000000001" fromJunction="4way_56" toJunction="4way_55"/>
<trip id="353" depart="104.55860000000001" fromJunction="4way_50" toJunction="3way_18"/>
<trip id="354" depart="104.85480000000001" fromJunction="4way_25" toJunction="4way_23"/>
<trip id="355" depart="105.15100000000001" fromJunction="4way_60" toJunction="3way_3"/>
<trip id="356" depart="105.44720000000001" fromJunction="4way_51" toJunction="4way_28"/>
<trip id="357" depart="105.74340000000001" fromJunction="4way_70" toJunction="4way_49"/>
<trip id="358" depart="106.03960000000001" fromJunction="4way_10" toJunction="4way_32"/>
<trip id="359" depart="106.3358" fromJunction="4way_10" toJunction="4way_38"/>
<trip id="360" depart="106.632" fromJunction="3way_73" toJunction="4way_10"/>
<trip id="361" depart="106.9282" fromJunction="4way_40" toJunction="4way_38"/>
<trip id="362" depart="107.2244" fromJunction="4way_56" toJunction="3way_63"/>
<trip id="363" depart="107.5206" fromJunction="3way_62" toJunction="3way_35"/>
<trip id="364" depart="107.8168" fromJunction="4way_52" toJunction="3way_4"/>