<routes xmlns:xsi="http://www.w3.org/2001/XMLSchema-instance" xsi:noNamespaceSchemaLocation="http://sumo.dlr.de/xsd/routes_file.xsd">
<trip id="0" depart="0.0" fromJunction="4way_24" toJunction="4way_36"/>
<trip id="1" depart="0.3007" fromJunction="4way_36" toJunction="4way_23"/>
<trip id="2" depart="0.6014" fromJunction="4way_37" toJunction="3way_7"/>
<trip id="3" depart="0.9021000000000001" fromJunction="4way_12" toJunction="3way_7"/>
<trip id="4" depart="1.2028" fromJunction="3way_21" toJunction="4way_33"/>
<trip id="5" depart="1.5035" fromJunction="4way_29" toJunction="4way_11"/>
<trip id="6" depart="1.8042000000000002" fromJunction="4way_19" toJunction="4way_9"/>
<trip id="7" depart="2.1049" fromJunction="4way_25" toJunction="3way_1"/>
<trip id="8" depart="2.4056" fromJunction="4way_39" toJunction="4way_11"/>
<trip id="9" depart="2.7063" fromJunction="4way_11" toJunction="4way_40"/>
<trip id="10" depart="3.007" fromJunction="4way_11" toJunction="4way_8"/>
<trip id="11" depart="3.3077" fromJunction="4way_30" toJunction="3way_13"/>
<trip id="12" depart="3.6084000000000005" fromJunction="4way_26" toJunction="3way_20"/>
<trip id="13" depart="3.9091000000000005" fromJunction="3way_14" toJunction="4way_29"/>
<trip id="14" depart="4.2098" fromJunction="4way_38" toJunction="3way_46"/>
<trip id="15" depart="4.5105" fromJunction="4way_9" toJunction="4way_8"/>
<trip id="16" depart="4.8112" fromJunction="4way_23" toJunction="3way_1"/>
<trip id="17" depart="5.1119" fromJunction="4way_10" toJunction="4way_26"/>
<trip id="18" depart="5.4126" fromJunction="3way_7" toJunction="3way_28"/>
<trip id="19" depart="5.7133" fromJunction="3way_3" toJunction="4way_17"/>
<trip id="20" depart="6.014" fromJunction="3way_13" toJunction="3way_41"/>
<trip id="21" depart="6.3147" fromJunction="3way_28" toJunction="3way_43"/>
<trip id="22" depart="6.6154" fromJunction="3way_7" toJunction="4way_9"/>
<trip id="23" depart="6.9161" fromJunction="3way_5" toJunction="4way_40"/>
<trip id="24" depart="7.216800000000001" fromJunction="3way_27" toJunction="3way_41"/>
<trip id="25" depart="7.517500000000001" fromJunction="3way_46" toJunction="4way_37"/>
<trip id="26" depart="7.818200000000001" fromJunction="3way_47" toJunction="4way_8"/>
<trip id="27" depart="8.1189" fromJunction="3way_5" toJunction="3way_27"/>
<trip id="28" depart="8.4196" fromJunction="3way_20" toJunction="4way_37"/>
<trip id="29" depart="8.7203" fromJunction="3way_28" toJunction="3way_34"/>
<trip id="30" depart="9.021" fromJunction="3way_5" toJunction="4way_18"/>
<trip id="31" depart="9.3217" fromJunction="3way_5" toJunction="4way_25"/>
<trip id="32" depart="9.6224" fromJunction="4way_15" toJunction="4way_33"/>
<trip id="33" depart="9.923100000000002" fromJunction="4way_23" toJunction="4way_33"/>
<trip id="34" depart="10.2238" fromJunction="3way_2" toJunction="4way_31"/>
<trip id="35" depart="10.524500000000002" fromJunction="3way_13" toJunction="3way_45"/>
<trip id="36" depart="10.8252" fromJunction="3way_13" toJunction="3way_44"/>
<trip id="37" depart="11.125900000000001" fromJunction="3way_14" toJunction="3way_43"/>
<trip id="38" depart="11.4266" fromJunction="4way_17" toJunction="3way_3"/>
<trip id="39" depart="11.727300000000001" fromJunction="3way_46" toJunction="4way_9"/>
<trip id="40" depart="12.028" fromJunction="3way_5" toJunction="4way_29"/>
<trip id="41" depart="12.328700000000001" fromJunction="4way_19" toJunction="4way_9"/>
<trip id="42" depart="12.6294" fromJunction="4way_10" toJunction="3way_43"/>
<trip id="43" depart="12.930100000000001" fromJunction="4way_24" toJunction="3way_13"/>
<trip id="44" depart="13.2308" fromJunction="3way_34" toJunction="3way_44"/>
<trip id="45" depart="13.531500000000001" fromJunction="3way_1" toJunction="4way_16"/>
<trip id="46" depart="13.8322" fromJunction="3way_1" toJunction="4way_25"/>
<trip id="47" depart="14.132900000000001" fromJunction="3way_45" toJunction="4way_10"/>
<trip id="48" depart="14.433600000000002" fromJunction="4way_33" toJunction="4way_31"/>
<trip id="49" depart="14.734300000000001" fromJunction="4way_9" toJunction="3way_46"/>
<trip id="50" depart="15.035000000000002" fromJunction="4way_9" toJunction="4way_16"/>
<trip id="51" depart="15.335700000000001" fromJunction="4way_26" toJunction="3way_47"/>
<trip id="52" depart="15.636400000000002" fromJunction="4way_32" toJunction="4way_8"/>
<trip id="53" depart="15.937100000000001" fromJunction="3way_44" toJunction="4way_17"/>
<trip id="54" depart="16.2378" fromJunction="3way_21" toJunction="4way_18"/>
<trip id="55" depart="16.538500000000003" fromJunction="4way_16" toJunction="4way_39"/>
<trip id="56" depart="16.8392" fromJunction="4way_17" toJunction="4way_39"/>
<trip id="57" depart="17.1399" fromJunction="4way_22" toJunction="4way_24"/>
<trip id="58" depart="17.4406" fromJunction="4way_30" toJunction="4way_33"/>
<trip id="59" depart="17.741300000000003" fromJunction="4way_23" toJunction="3way_7"/>
<trip id="60" depart="18.042" fromJunction="3way_44" toJunction="3way_1"/>
<trip id="61" depart="18.3427" fromJunction="3way_44" toJunction="4way_37"/>
<trip id="62" depart="18.6434" fromJunction="3way_7" toJunction="4way_23"/>
<trip id="63" depart="18.944100000000002" fromJunction="3way_44" toJunction="3way_20"/>
<trip id="64" depart="19.2448" fromJunction="4way_16" toJunction="4way_9"/>
<trip id="65" depart="19.5455" fromJunction="4way_37" toJunction="4way_9"/>
<trip id="66" depart="19.846200000000003" fromJunction="3way_7" toJunction="4way_37"/>
<trip id="67" depart="20.146900000000002" fromJunction="3way_28" toJunction="4way_12"/>
<trip id="68" depart="20.4476" fromJunction="4way_12" toJunction="3way_7"/>
<trip id="69" depart="20.7483" fromJunction="4way_17" toJunction="4way_18"/>
<trip id="70" depart="21.049000000000003" fromJunction="4way_19" toJunction="3way_5"/>
<trip id="71" depart="21.349700000000002" fromJunction="4way_40" toJunction="4way_24"/>
<trip id="72" depart="21.6504" fromJunction="4way_39" toJunction="3way_20"/>
<trip id="73" depart="21.9511" fromJunction="4way_23" toJunction="3way_27"/>
<trip id="74" depart="22.251800000000003" fromJunction="4way_32" toJunction="3way_13"/>
<trip id="75" depart="22.552500000000002" fromJunction="4way_9" toJunction="4way_18"/>
<trip id="76" depart="22.8532" fromJunction="3way_4" toJunction="3way_14"/>
<trip id="77" depart="23.1539" fromJunction="4way_8" toJunction="4way_17"/>
<trip id="78" depart="23.454600000000003" fromJunction="4way_32" toJunction="4way_24"/>
<trip id="79" depart="23.755300000000002" fromJunction="4way_32" toJunction="4way_33"/>
<trip id="80" depart="24.056" fromJunction="3way_28" toJunction="3way_1"/>
<trip id="81" depart="24.356700000000004" fromJunction="3way_27" toJunction="4way_24"/>
<trip id="82" depart="24.657400000000003" fromJunction="3way_3" toJunction="4way_29"/>
<trip id="83" depart="24.9581" fromJunction="3way_1" toJunction="3way_34"/>
<trip id="84" depart="25.2588" fromJunction="3way_47" toJunction="4way_11"/>
<trip id="85" depart="25.559500000000003" fromJunction="4way_19" toJunction="3way_35"/>
<trip id="86" depart="25.860200000000003" fromJunction="3way_2" toJunction="4way_17"/>
<trip id="87" depart="26.1609" fromJunction="4way_23" toJunction="3way_27"/>
<trip id="88" depart="26.4616" fromJunction="3way_47" toJunction="4way_9"/>
<trip id="89" depart="26.762300000000003" fromJunction="4way_23" toJunction="4way_26"/>
<trip id="90" depart="27.063000000000002" fromJunction="4way_16" toJunction="4way_36"/>
<trip id="91" depart="27.3637" fromJunction="3way_43" toJunction="4way_24"/>
<trip id="92" depart="27.6644" fromJunction="3way_41" toJunction="3way_21"/>
<trip id="93" depart="27.965100000000003" fromJunction="4way_26" toJunction="3way_34"/>
<trip id="94" depart="28.265800000000002" fromJunction="4way_22" toJunction="4way_31"/>
<trip id="95" depart="28.5665" fromJunction="3way_46" toJunction="3way_47"/>
<trip id="96" depart="28.867200000000004" fromJunction="3way_7" toJunction="3way_3"/>
<trip id="97" depart="29.167900000000003" fromJunction="4way_17" toJunction="3way_43"/>
<trip id="98" depart="29.468600000000002" fromJunction="3way_34" toJunction="3way_28"/>
<trip id="99" depart="29.7693" fromJunction="3way_4" toJunction="3way_2"/>
<trip id="100" depart="30.070000000000004" fromJunction="4way_8" toJunction="4way_10"/>
<trip id="101" depart="30.370700000000003" fromJunction="4way_12" toJunction="4way_36"/>
<trip id="102" depart="30.671400000000002" fromJunction="3way_41" toJunction="4way_40"/>
<trip id="103" depart="30.9721" fromJunction="3way_46" toJunction="4way_37"/>
<trip id="104" depart="31.272800000000004" fromJunction="4way_38" toJunction="3way_1"/>
<trip id="105" depart="31.573500000000003" fromJunction="3way_21" toJunction="3way_43"/>
<trip id="106" depart="31.874200000000002" fromJunction="4way_25" toJunction="4way_16"/>
<trip id="107" depart="32.1749" fromJunction="4way_39" toJunction="4way_30"/>
<trip id="108" depart="32.4756" fromJunction="4way_11" toJunction="3way_45"/>
<trip id="109" depart="32.7763" fromJunction="4way_26" toJunction="3way_34"/>
<trip id="110" depart="33.077000000000005" fromJunction="3way_41" toJunction="4way_10"/>
<trip id="111" depart="33.377700000000004" fromJunction="4way_24" toJunction="4way_26"/>
<trip id="112" depart="33.6784" fromJunction="3way_41" toJunction="3way_46"/>
<trip id="113" depart="33.9791" fromJunction="3way_2" toJunction="4way_29"/>
<trip id="114" depart="34.2798" fromJunction="3way_7" toJunction="3way_41"/>
<trip id="115" depart="34.5805" fromJunction="4way_8" toJunction="3way_28"/>
<trip id="116" depart="34.8812" fromJunction="4way_16" toJunction="3way_45"/>
<trip id="117" depart="35.181900000000006" fromJunction="3way_13" toJunction="4way_32"/>
<trip id="118" depart="35.482600000000005" fromJunction="3way_13" toJunction="4way_29"/>
<trip id="119" depart="35.783300000000004" fromJunction="3way_21" toJunction="4way_24"/>
<trip id="120" depart="36.084" fromJunction="3way_34" toJunction="4way_9"/>
<trip id="121" depart="36.3847" fromJunction="4way_15" toJunction="3way_20"/>
<trip id="122" depart="36.6854" fromJunction="4way_26" toJunction="3way_28"/>
<trip id="123" depart="36.9861" fromJunction="4way_31" toJunction="4way_38"/>
<trip id="124" depart="37.2868" fromJunction="3way_4" toJunction="4way_12"/>
<trip id="125" depart="37.587500000000006" fromJunction="4way_16" toJunction="4way_36"/>
<trip id="126" depart="37.888200000000005" fromJunction="3way_44" toJunction="4way_33"/>
<trip id="127" depart="38.188900000000004" fromJunction="3way_5" toJunction="3way_47"/>
<trip id="128" depart="38.4896" fromJunction="4way_19" toJunction="3way_1"/>
<trip id="129" depart="38.7903" fromJunction="4way_11" toJunction="4way_10"/>
<trip id="130" depart="39.091" fromJunction="4way_16" toJunction="3way_45"/>
<trip id="131" depart="39.3917" fromJunction="4way_15" toJunction="3way_3"/>
<trip id="132" depart="39.692400000000006" fromJunction="4way_39" toJunction="4way_33"/>
<trip id="133" depart="39.993100000000005" fromJunction="4way_33" toJunction="3way_35"/>
<trip id="134" depart="40.293800000000005" fromJunction="4way_26" toJunction="3way_47"/>
<trip id="135" depart="40.594500000000004" fromJunction="4way_11" toJunction="4way_26"/>
<trip id="136" depart="40.8952" fromJunction="4way_39" toJunction="4way_30"/>
<trip id="137" depart="41.1959" fromJunction="4way_32" toJunction="3way_44"/>
<trip id="138" depart="41.4966" fromJunction="3way_1" toJunction="4way_23"/>
<trip id="139" depart="41.7973" fromJunction="3way_20" toJunction="3way_35"/>
<trip id="140" depart="42.098000000000006" fromJunction="4way_15" toJunction="4way_40"/>
<trip id="141" depart="42.398700000000005" fromJunction="4way_30" toJunction="4way_22"/>
<trip id="142" depart="42.699400000000004" fromJunction="3way_20" toJunction="3way_28"/>
<trip id="143" depart="43.0001" fromJunction="3way_34" toJunction="4way_18"/>
<trip id="144" depart="43.3008" fromJunction="3way_47" toJunction="4way_29"/>
<trip id="145" depart="43.6015" fromJunction="4way_32" toJunction="3way_5"/>
<trip id="146" depart="43.9022" fromJunction="4way_38" toJunction="4way_12"/>
<trip id="147" depart="44.20290000000001" fromJunction="3way_4" toJunction="3way_43"/>
<trip id="148" depart="44.503600000000006" fromJunction="3way_47" toJunction="3way_14"/>
<trip id="149" depart="44.804300000000005" fromJunction="3way_3" toJunction="3way_13"/>
<trip id="150" depart="45.105000000000004" fromJunction="3way_1" toJunction="4way_24"/>
<trip id="151" depart="45.4057" fromJunction="3way_20" toJunction="4way_38"/>
<trip id="152" depart="45.7064" fromJunction="3way_5" toJunction="3way_4"/>
<trip id="153" depart="46.0071" fromJunction="3way_46" toJunction="4way_10"/>
<trip id="154" depart="46.3078" fromJunction="4way_9" toJunction="3way_14"/>
<trip id="155" depart="46.60850000000001" fromJunction="4way_24" toJunction="4way_32"/>
<trip id="156" depart="46.909200000000006" fromJunction="3way_13" toJunction="3way_45"/>
<trip id="157" depart="47.209900000000005" fromJunction="3way_44" toJunction="3way_3"/>
<trip id="158" depart="47.510600000000004" fromJunction="4way_8" toJunction="3way_46"/>
<trip id="159" depart="47.8113" fromJunction="4way_17" toJunction="4way_10"/>
<trip id="160" depart="48.112" fromJunction="3way_21" toJunction="3way_45"/>
<trip id="161" depart="48.4127" fromJunction="4way_11" toJunction="3way_34"/>
<trip id="162" depart="48.71340000000001" fromJunction="4way_17" toJunction="3way_3"/>
<trip id="163" depart="49.014100000000006" fromJunction="4way_38" toJunction="4way_11"/>
<trip id="164" depart="49.314800000000005" fromJunction="3way_28" toJunction="3way_46"/>
<trip id="165" depart="49.615500000000004" fromJunction="3way_45" toJunction="4way_16"/>
<trip id="166" depart="49.9162" fromJunction="3way_34" toJunction="3way_28"/>
<trip id="167" depart="50.2169" fromJunction="3way_3" toJunction="4way_8"/>
<trip id="168" depart="50.5176" fromJunction="3way_4" toJunction="4way_11"/>
<trip id="169" depart="50.8183" fromJunction="3way_44" toJunction="4way_29"/>
<trip id="170" depart="51.11900000000001" fromJunction="4way_33" toJunction="4way_9"/>
<trip id="171" depart="51.419700000000006" fromJunction="3way_2" toJunction="4way_37"/>
<trip id="172" depart="51.720400000000005" fromJunction="4way_22" toJunction="3way_7"/>
<trip id="173" depart="52.021100000000004" fromJunction="4way_10" toJunction="4way_36"/>
<trip id="174" depart="52.3218" fromJunction="3way_13" toJunction="3way_45"/>
<trip id="175" depart="52.6225" fromJunction="4way_33" toJunction="3way_21"/>
<trip id="176" depart="52.9232" fromJunction="4way_12" toJunction="3way_34"/>
<trip id="177" depart="53.22390000000001" fromJunction="4way_8" toJunction="4way_36"/>
<trip id="178" depart="53.52460000000001" fromJunction="4way_8" toJunction="4way_39"/>
<trip id="179" depart="53.825300000000006" fromJunction="3way_21" toJunction="4way_24"/>
<trip id="180" depart="54.126000000000005" fromJunction="4way_17" toJunction="4way_12"/>
<trip id="181" depart="54.426700000000004" fromJunction="3way_43" toJunction="4way_17"/>
<trip id="182" depart="54.7274" fromJunction="4way_30" toJunction="4way_38"/>
<trip id="183" depart="55.0281" fromJunction="3way_27" toJunction="3way_47"/>
<trip id="184" depart="55.3288" fromJunction="4way_33" toJunction="4way_11"/>
<trip id="185" depart="55.62950000000001" fromJunction="4way_16" toJunction="4way_8"/>
<trip id="186" depart="55.930200000000006" fromJunction="4way_8" toJunction="4way_32"/>
<trip id="187" depart="56.230900000000005" fromJunction="4way_9" toJunction="4way_26"/>
<trip id="188" depart="56.531600000000005" fromJunction="4way_12" toJunction="4way_18"/>
<trip id="189" depart="56.832300000000004" fromJunction="3way_27" toJunction="4way_18"/>
<trip id="190" depart="57.133" fromJunction="3way_21" toJunction="4way_30"/>
<trip id="191" depart="57.4337" fromJunction="3way_7" toJunction="3way_3"/>
<trip id="192" depart="57.73440000000001" fromJunction="4way_32" toJunction="3way_46"/>
<trip id="193" depart="58.03510000000001" fromJunction="4way_33" toJunction="3way_2"/>
<trip id="194" depart="58.335800000000006" fromJunction="3way_28" toJunction="3way_35"/>
<trip id="195" depart="58.636500000000005" fromJunction="3way_34" toJunction="3way_1"/>
<trip id="196" depart="58.937200000000004" fromJunction="4way_19" toJunction="3way_14"/>
<trip id="197" depart="59.2379" fromJunction="4way_26" toJunction="3way_5"/>
<trip id="198" depart="59.5386" fromJunction="4way_8" toJunction="4way_39"/>
<trip id="199" depart="59.8393" fromJunction="3way_47" toJunction="3way_43"/>
<trip id="200" depart="60.14000000000001" fromJunction="3way_2" toJunction="4way_23"/>
<trip id="201" depart="60.44070000000001" fromJunction="3way_7" toJunction="3way_1"/>
<trip id="202" depart="60.741400000000006" fromJunction="3way_46" toJunction="3way_4"/>
<trip id="203" depart="61.042100000000005" fromJunction="3way_46" toJunction="3way_41"/>
<trip id="204" depart="61.342800000000004" fromJunction="3way_1" toJunction="3way_13"/>
<trip id="205" depart="61.6435" fromJunction="4way_23" toJunction="3way_13"/>
<trip id="206" depart="61.9442" fromJunction="4way_40" toJunction="4way_33"/>
<trip id="207" depart="62.2449" fromJunction="3way_27" toJunction="3way_14"/>
<trip id="208" depart="62.54560000000001" fromJunction="4way_22" toJunction="4way_30"/>
<trip id="209" depart="62.84630000000001" fromJunction="3way_3" toJunction="4way_40"/>
<trip id="210" depart="63.147000000000006" fromJunction="3way_45" toJunction="4way_11"/>
<trip id="211" depart="63.447700000000005" fromJunction="4way_37" toJunction="3way_47"/>
<trip id="212" depart="63.748400000000004" fromJunction="4way_37" toJunction="3way_46"/>
<trip id="213" depart="64.04910000000001" fromJunction="3way_7" toJunction="4way_29"/>
<trip id="214" depart="64.3498" fromJunction="3way_45" toJunction="4way_36"/>
<trip id="215" depart="64.65050000000001" fromJunction="3way_14" toJunction="4way_17"/>
<trip id="216" depart="64.9512" fromJunction="4way_25" toJunction="3way_28"/>
<trip id="217" depart="65.2519" fromJunction="3way_3" toJunction="4way_19"/>
<trip id="218" depart="65.5526" fromJunction="3way_35" toJunction="3way_47"/>
<trip id="219" depart="65.8533" fromJunction="4way_40" toJunction="4way_18"/>
<trip id="220" depart="66.15400000000001" fromJunction="4way_12" toJunction="4way_33"/>
<trip id="221" depart="66.4547" fromJunction="4way_40" toJunction="3way_44"/>
<trip id="222" depart="66.75540000000001" fromJunction="3way_5" toJunction="3way_46"/>
<trip id="223" depart="67.0561" fromJunction="3way_47" toJunction="4way_26"/>
<trip id="224" depart="67.3568" fromJunction="3way_3" toJunction="4way_17"/>
<trip id="225" depart="67.6575" fromJunction="4way_39" toJunction="4way_24"/>
<trip id="226" depart="67.9582" fromJunction="3way_21" toJunction="3way_45"/>
<trip id="227" depart="68.25890000000001" fromJunction="4way_31" toJunction="3way_28"/>
<trip id="228" depart="68.5596" fromJunction="3way_27" toJunction="3way_47"/>
<trip id="229" depart="68.86030000000001" fromJunction="3way_44" toJunction="4way_8"/>
<trip id="230" depart="69.161" fromJunction="3way_47" toJunction="4way_25"/>
<trip id="231" depart="69.46170000000001" fromJunction="4way_26" toJunction="4way_22"/>
<trip id="232" depart="69.7624" fromJunction="4way_39" toJunction="4way_30"/>
<trip id="233" depart="70.0631" fromJunction="4way_31" toJunction="4way_26"/>
<trip id="234" depart="70.36380000000001" fromJunction="4way_33" toJunction="4way_17"/>
<trip id="235" depart="70.6645" fromJunction="4way_8" toJunction="4way_40"/>
<trip id="236" depart="70.96520000000001" fromJunction="3way_44" toJunction="3way_4"/>
<trip id="237" depart="71.2659" fromJunction="3way_14" toJunction="3way_20"/>
<trip id="238" depart="71.56660000000001" fromJunction="4way_23" toJunction="3way_13"/>
<trip id="239" depart="71.8673" fromJunction="4way_12" toJunction="3way_21"/>
<trip id="240" depart="72.168" fromJunction="4way_36" toJunction="4way_33"/>
<trip id="241" depart="72.46870000000001" fromJunction="4way_16" toJunction="3way_45"/>
<trip id="242" depart="72.7694" fromJunction="3way_14" toJunction="4way_12"/>
<trip id="243" depart="73.07010000000001" fromJunction="3way_45" toJunction="4way_36"/>
<trip id="244" depart="73.3708" fromJunction="3way_14" toJunction="4way_8"/>
<trip id="245" depart="73.67150000000001" fromJunction="4way_22" toJunction="3way_46"/>
<trip id="246" depart="73.9722" fromJunction="3way_28" toJunction="3way_44"/>
<trip id="247" depart="74.2729" fromJunction="4way_31" toJunction="4way_29"/>
<trip id="248" depart="74.5736" fromJunction="4way_19" toJunction="3way_35"/>
<trip id="249" depart="74.8743" fromJunction="3way_3" toJunction="4way_32"/>
<trip id="250" depart="75.17500000000001" fromJunction="4way_8" toJunction="3way_46"/>
<trip id="251" depart="75.4757" fromJunction="3way_35" toJunction="3way_5"/>
<trip id="252" depart="75.77640000000001" fromJunction="4way_10" toJunction="4way_31"/>
<trip id="253" depart="76.0771" fromJunction="4way_17" toJunction="4way_30"/>
<trip id="254" depart="76.37780000000001" fromJunction="3way_35" toJunction="3way_41"/>
<trip id="255" depart="76.6785" fromJunction="4way_39" toJunction="4way_10"/>
<trip id="256" depart="76.9792" fromJunction="3way_45" toJunction="4way_36"/>
<trip id="257" depart="77.27990000000001" fromJunction="4way_17" toJunction="3way_2"/>
<trip id="258" depart="77.5806" fromJunction="3way_28" toJunction="3way_1"/>
<trip id="259" depart="77.88130000000001" fromJunction="4way_19" toJunction="4way_29"/>
<trip id="260" depart="78.182" fromJunction="3way_14" toJunction="3way_5"/>
<trip id="261" depart="78.48270000000001" fromJunction="3way_35" toJunction="3way_2"/>
<trip id="262" depart="78.7834" fromJunction="3way_45" toJunction="4way_30"/>
<trip id="263" depart="79.0841" fromJunction="3way_13" toJunction="3way_41"/>
<trip id="264" depart="79.38480000000001" fromJunction="4way_17" toJunction="4way_9"/>
<trip id="265" depart="79.6855" fromJunction="4way_26" toJunction="4way_10"/>
<trip id="266" depart="79.98620000000001" fromJunction="4way_37" toJunction="3way_1"/>
<trip id="267" depart="80.2869" fromJunction="4way_16" toJunction="4way_23"/>
<trip id="268" depart="80.58760000000001" fromJunction="3way_1" toJunction="4way_33"/>
<trip id="269" depart="80.8883" fromJunction="4way_18" toJunction="4way_17"/>
<trip id="270" depart="81.18900000000001" fromJunction="3way_35" toJunction="4way_22"/>
<trip id="271" depart="81.4897" fromJunction="3way_5" toJunction="4way_11"/>
<trip id="272" depart="81.7904" fromJunction="4way_29" toJunction="3way_7"/>
<trip id="273" depart="82.09110000000001" fromJunction="3way_5" toJunction="4way_17"/>
<trip id="274" depart="82.3918" fromJunction="3way_14" toJunction="3way_47"/>
<trip id="275" depart="82.69250000000001" fromJunction="4way_39" toJunction="4way_30"/>
<trip id="276" depart="82.9932" fromJunction="3way_20" toJunction="4way_23"/>
<trip id="277" depart="83.29390000000001" fromJunction="4way_39" toJunction="4way_40"/>
<trip id="278" depart="83.5946" fromJunction="4way_19" toJunction="4way_22"/>
<trip id="279" depart="83.8953" fromJunction="4way_19" toJunction="4way_36"/>
<trip id="280" depart="84.19600000000001" fromJunction="4way_33" toJunction="4way_25"/>
<trip id="281" depart="84.4967" fromJunction="3way_2" toJunction="4way_19"/>
<trip id="282" depart="84.79740000000001" fromJunction="3way_21" toJunction="3way_27"/>
<trip id="283" depart="85.0981" fromJunction="3way_44" toJunction="4way_26"/>
<trip id="284" depart="85.39880000000001" fromJunction="4way_39" toJunction="3way_27"/>
<trip id="285" depart="85.6995" fromJunction="4way_12" toJunction="4way_8"/>
<trip id="286" depart="86.0002" fromJunction="4way_37" toJunction="3way_27"/>
<trip id="287" depart="86.30090000000001" fromJunction="3way_4" toJunction="3way_7"/>
<trip id="288" depart="86.6016" fromJunction="3way_46" toJunction="4way_17"/>
<trip id="289" depart="86.90230000000001" fromJunction="3way_3" toJunction="3way_2"/>
<trip id="290" depart="87.203" fromJunction="4way_12" toJunction="3way_3"/>
<trip id="291" depart="87.50370000000001" fromJunction="4way_12" toJunction="4way_31"/>
<trip id="292" depart="87.8044" fromJunction="4way_29" toJunction="4way_10"/>
<trip id="293" depart="88.10510000000001" fromJunction="4way_40" toJunction="3way_44"/>
<trip id="294" depart="88.40580000000001" fromJunction="4way_15" toJunction="3way_28"/>
<trip id="295" depart="88.7065" fromJunction="4way_40" toJunction="3way_21"/>
<trip id="296" depart="89.00720000000001" fromJunction="3way_43" toJunction="3way_27"/>
<trip id="297" depart="89.3079" fromJunction="3way_3" toJunction="4way_10"/>
<trip id="298" depart="89.60860000000001" fromJunction="4way_15" toJunction="4way_23"/>
<trip id="299" depart="89.9093" fromJunction="3way_47" toJunction="3way_45"/>
<trip id="300" depart="90.21000000000001" fromJunction="3way_28" toJunction="4way_29"/>
<trip id="301" depart="90.5107" fromJunction="3way_35" toJunction="4way_8"/>
<trip id="302" depart="90.8114" fromJunction="3way_20" toJunction="4way_33"/>
<trip id="303" depart="91.11210000000001" fromJunction="3way_35" toJunction="3way_5"/>
<trip id="304" depart="91.4128" fromJunction="4way_37" toJunction="4way_16"/>
<trip id="305" depart="91.71350000000001" fromJunction="4way_40" toJunction="3way_21"/>
<trip id="306" depart="92.0142" fromJunction="4way_24" toJunction="3way_35"/>
<trip id="307" depart="92.31490000000001" fromJunction="4way_18" toJunction="4way_30"/>
<trip id="308" depart="92.6156" fromJunction="4way_12" toJunction="4way_33"/>
<trip id="309" depart="92.9163" fromJunction="4way_17" toJunction="4way_38"/>
<trip id="310" depart="93.21700000000001" fromJunction="3way_20" toJunction="3way_35"/>
<trip id="311" depart="93.5177" fromJunction="3way_47" toJunction="3way_3"/>
<trip id="312" depart="93.81840000000001" fromJunction="4way_29" toJunction="3way_7"/>
<trip id="313" depart="94.1191" fromJunction="4way_33" toJunction="4way_38"/>
<trip id="314" depart="94.41980000000001" fromJunction="3way_5" toJunction="3way_13"/>
<trip id="315" depart="94.7205" fromJunction="4way_31" toJunction="4way_16"/>
<trip id="316" depart="95.02120000000001" fromJunction="4way_26" toJunction="4way_32"/>
<trip id="317" depart="95.32190000000001" fromJunction="3way_21" toJunction="4way_40"/>
<trip id="318" depart="95.6226" fromJunction="3way_20" toJunction="3way_21"/>
<trip id="319" depart="95.92330000000001" fromJunction="4way_37" toJunction="4way_10"/>
<trip id="320" depart="96.224" fromJunction="3way_5" toJunction="4way_32"/>
<trip id="321" depart="96.52470000000001" fromJunction="4way_16" toJunction="4way_22"/>
<trip id="322" depart="96.8254" fromJunction="3way_27" toJunction="3way_47"/>
<trip id="323" depart="97.12610000000001" fromJunction="3way_3" toJunction="4way_32"/>
<trip id="324" depart="97.42680000000001" fromJunction="3way_13" toJunction="4way_15"/>
<trip id="325" depart="97.7275" fromJunction="4way_40" toJunction="4way_8"/>
<trip id="326" depart="98.02820000000001" fromJunction="4way_32" toJunction="3way_7"/>
<trip id="327" depart="98.3289" fromJunction="3way_45" toJunction="3way_13"/>
<trip id="328" depart="98.62960000000001" fromJunction="3way_21" toJunction="3way_14"/>
<trip id="329" depart="98.9303" fromJunction="3way_35" toJunction="4way_10"/>
<trip id="330" depart="99.23100000000001" fromJunction="4way_30" toJunction="4way_24"/>
<trip id="331" depart="99.5317" fromJunction="3way_7" toJunction="3way_21"/>
<trip id="332" depart="99.8324" fromJunction="3way_4" toJunction="4way_23"/>
<trip id="333" depart="100.13310000000001" fromJunction="4way_37" toJunction="4way_25"/>
<trip id="334" depart="100.4338" fromJunction="4way_36" toJunction="4way_24"/>
<trip id="335" depart="100.73450000000001" fromJunction="3way_14" toJunction="3way_5"/>
<trip id="336" depart="101.0352" fromJunction="3way_43" toJunction="3way_14"/>
<trip id="337" depart="101.33590000000001" fromJunction="4way_31" toJunction="3way_2"/>
<trip id="338" depart="101.6366" fromJunction="4way_23" toJunction="3way_5"/>
<trip id="339" depart="101.93730000000001" fromJunction="4way_30" toJunction="4way_17"/>
<trip id="340" depart="102.23800000000001" fromJunction="3way_5" toJunction="4way_33"/>
<trip id="341" depart="102.5387" fromJunction="3way_2" toJunction="4way_39"/>
<trip id="342" depart="102.83940000000001" fromJunction="3way_14" toJunction="4way_36"/>
<trip id="343" depart="103.1401" fromJunction="3way_28" toJunction="4way_29"/>
<trip id="344" depart="103.44080000000001" fromJunction="3way_1" toJunction="3way_34"/>
<trip id="345" depart="103.7415" fromJunction="4way_25" toJunction="4way_29"/>
<trip id="346" depart="104.04220000000001" fromJunction="3way_47" toJunction="3way_28"/>
<trip id="347" depart="104.34290000000001" fromJunction="3way_5" toJunction="3way_41"/>
<trip id="348" depart="104.6436" fromJunction="3way_3" toJunction="3way_46"/>
<trip id="349" depart="104.94430000000001" fromJunction="4way_32" toJunction="3way_3"/>
<trip id="350" depart="105.245" fromJunction="4way_9" toJunction="3way_27"/>
<trip id="351" depart="105.54570000000001" fromJunction="4way_8" toJunction="4way_38"/>
<trip id="352" depart="105.8464" fromJunction="3way_34" toJunction="3way_20"/>
<trip id="353" depart="106.14710000000001" fromJunction="4way_29" toJunction="3way_7"/>
<trip id="354" depart="106.44780000000002" fromJunction="4way_11" toJunction="3way_35"/>
<trip id="355" depart="106.7485" fromJunction="4way_19" toJunction="4way_31"/>
<trip id="356" depart="107.04920000000001" fromJunction="4way_12" toJunction="3way_2"/>
<trip id="357" depart="107.3499" fromJunction="4way_39" toJunction="3way_21"/>
<trip id="358" depart="107.65060000000001" fromJunction="4way_40" toJunction="4way_17"/>
<trip id="359" depart="107.9513" fromJunction="3way_28" toJunction="4way_38"/>
<trip id="360" depart="108.25200000000001" fromJunction="3way_28" toJunction="4way_22"/>
<trip id="361" depart="108.5527" fromJunction="3way_46" toJunction="3way_28"/>