<routes xmlns:xsi="http://www.w3.org/2001/XMLSchema-instance" xsi:noNamespaceSchemaLocation="http://sumo.dlr.de/xsd/routes_file.xsd">
<trip id="0" depart="0.0" fromJunction="4way_55" toJunction="4way_53"/>
<trip id="1" depart="0.2105" fromJunction="4way_53" toJunction="4way_24"/>
<trip id="2" depart="0.421" fromJunction="4way_74" toJunction="4way_12"/>
<trip id="3" depart="0.6315" fromJunction="4way_67" toJunction="4way_32"/>
<trip id="4" depart="0.842" fromJunction="4way_51" toJunction="4way_58"/>
<trip id="5" depart="1.0525" fromJunction="4way_33" toJunction="4way_56"/>
<trip id="6" depart="1.263" fromJunction="4way_18" toJunction="4way_73"/>
<trip id="7" depart="1.4735" fromJunction="3way_19" toJunction="3way_7"/>
<trip id="8" depart="1.684" fromJunction="4way_86" toJunction="3way_2"/>
<trip id="9" depart="1.8944999999999999" fromJunction="4way_47" toJunction="4way_36"/>
<trip id="10" depart="2.105" fromJunction="4way_56" toJunction="4way_68"/>
<trip id="11" depart="2.3155" fromJunction="4way_36" toJunction="4way_52"/>
<trip id="12" depart="2.526" fromJunction="4way_64" toJunction="3way_49"/>
<trip id="13" depart="2.7365" fromJunction="4way_38" toJunction="3way_69"/>
<trip id="14" depart="2.947" fromJunction="4way_81" toJunction="4way_33"/>
<trip id="15" depart="3.1574999999999998" fromJunction="4way_36" toJunction="3way_70"/>
<trip id="16" depart="3.368" fromJunction="4way_73" toJunction="4way_42"/>
<trip id="17" depart="3.5785" fromJunction="4way_44" toJunction="3way_2"/>
<trip id="18" depart="3.7889999999999997" fromJunction="4way_44" toJunction="4way_34"/>
<trip id="19" depart="3.9995" fromJunction="4way_25" toJunction="4way_38"/>
<trip id="20" depart="4.21" fromJunction="4way_22" toJunction="4way_31"/>
<trip id="21" depart="4.4205" fromJunction="3way_6" toJunction="4way_35"/>
<trip id="22" depart="4.631" fromJunction="3way_59" toJunction="3way_94"/>
<trip id="23" depart="4.8415" fromJunction="4way_31" toJunction="3way_20"/>
<trip id="24" depart="5.052" fromJunction="4way_32" toJunction="4way_73"/>
<trip id="25" depart="5.2625" fromJunction="3way_29" toJunction="4way_78"/>
<trip id="26" depart="5.473" fromJunction="3way_89" toJunction="3way_94"/>
<trip id="27" depart="5.6834999999999996" fromJunction="3way_80" toJunction="4way_74"/>
<trip id="28" depart="5.894" fromJunction="3way_91" toJunction="4way_52"/>
<trip id="29" depart="6.1045" fromJunction="3way_39" toJunction="3way_89"/>
<trip id="30" depart="6.3149999999999995" fromJunction="3way_69" toJunction="4way_84"/>
<trip id="31" depart="6.5255" fromJunction="4way_41" toJunction="3way_96"/>
<trip id="32" depart="6.736" fromJunction="3way_29" toJunction="4way_76"/>
<trip id="33" depart="6.9464999999999995" fromJunction="3way_29" toJunction="4way_17"/>
<trip id="34" depart="7.157" fromJunction="4way_52" toJunction="4way_68"/>
<trip id="35" depart="7.3675" fromJunction="4way_34" toJunction="4way_68"/>
<trip id="36" depart="7.577999999999999" fromJunction="3way_4" toJunction="4way_75"/>
<trip id="37" depart="7.7885" fromJunction="3way_49" toJunction="3way_50"/>
<trip id="38" depart="7.999" fromJunction="3way_49" toJunction="3way_40"/>
<trip id="39" depart="8.2095" fromJunction="4way_81" toJunction="3way_20"/>
<trip id="40" depart="8.42" fromJunction="4way_35" toJunction="3way_7"/>
<trip id="41" depart="8.6305" fromJunction="3way_70" toJunction="4way_73"/>
<trip id="42" depart="8.841" fromJunction="3way_29" toJunction="4way_33"/>
<trip id="43" depart="9.051499999999999" fromJunction="4way_28" toJunction="4way_83"/>
<trip id="44" depart="9.262" fromJunction="4way_15" toJunction="3way_20"/>
<trip id="45" depart="9.4725" fromJunction="4way_55" toJunction="3way_59"/>
<trip id="46" depart="9.683" fromJunction="3way_97" toJunction="3way_50"/>
<trip id="47" depart="9.8935" fromJunction="3way_2" toJunction="4way_14"/>
<trip id="48" depart="10.104" fromJunction="3way_1" toJunction="4way_86"/>
<trip id="49" depart="10.314499999999999" fromJunction="3way_70" toJunction="4way_25"/>
<trip id="50" depart="10.525" fromJunction="4way_58" toJunction="4way_75"/>
<trip id="51" depart="10.7355" fromJunction="4way_83" toJunction="3way_91"/>
<trip id="52" depart="10.946" fromJunction="4way_73" toJunction="4way_14"/>
<trip id="53" depart="11.1565" fromJunction="4way_48" toJunction="3way_93"/>
<trip id="54" depart="11.366999999999999" fromJunction="4way_27" toJunction="4way_32"/>
<trip id="55" depart="11.577499999999999" fromJunction="3way_40" toJunction="4way_45"/>
<trip id="56" depart="11.788" fromJunction="4way_71" toJunction="4way_76"/>
<trip id="57" depart="11.9985" fromJunction="4way_83" toJunction="4way_57"/>
<trip id="58" depart="12.209" fromJunction="4way_35" toJunction="4way_57"/>
<trip id="59" depart="12.4195" fromJunction="4way_13" toJunction="4way_65"/>
<trip id="60" depart="12.629999999999999" fromJunction="4way_64" toJunction="4way_48"/>
<trip id="61" depart="12.840499999999999" fromJunction="4way_34" toJunction="4way_12"/>
<trip id="62" depart="13.051" fromJunction="3way_40" toJunction="3way_2"/>
<trip id="63" depart="13.2615" fromJunction="3way_50" toJunction="4way_84"/>
<trip id="64" depart="13.472" fromJunction="4way_22" toJunction="4way_44"/>
<trip id="65" depart="13.6825" fromJunction="3way_40" toJunction="3way_69"/>
<trip id="66" depart="13.892999999999999" fromJunction="4way_14" toJunction="4way_73"/>
<trip id="67" depart="14.1035" fromJunction="4way_74" toJunction="4way_83"/>
<trip id="68" depart="14.314" fromJunction="4way_22" toJunction="4way_74"/>
<trip id="69" depart="14.5245" fromJunction="4way_41" toJunction="4way_77"/>
<trip id="70" depart="14.735" fromJunction="4way_67" toJunction="4way_22"/>
<trip id="71" depart="14.9455" fromJunction="4way_45" toJunction="4way_66"/>
<trip id="72" depart="15.155999999999999" fromJunction="4way_18" toJunction="3way_29"/>
<trip id="73" depart="15.3665" fromJunction="4way_88" toJunction="4way_55"/>
<trip id="74" depart="15.577" fromJunction="4way_47" toJunction="3way_79"/>
<trip id="75" depart="15.7875" fromJunction="4way_44" toJunction="3way_89"/>
<trip id="76" depart="15.998" fromJunction="4way_27" toJunction="3way_49"/>
<trip id="77" depart="16.2085" fromJunction="4way_73" toJunction="4way_66"/>
<trip id="78" depart="16.419" fromJunction="3way_7" toJunction="4way_81"/>
<trip id="79" depart="16.6295" fromJunction="4way_42" toJunction="4way_35"/>
<trip id="80" depart="16.84" fromJunction="4way_47" toJunction="4way_65"/>
<trip id="81" depart="17.0505" fromJunction="4way_37" toJunction="4way_68"/>
<trip id="82" depart="17.261" fromJunction="4way_31" toJunction="3way_2"/>
<trip id="83" depart="17.4715" fromJunction="3way_98" toJunction="4way_75"/>
<trip id="84" depart="17.682" fromJunction="3way_6" toJunction="4way_33"/>
<trip id="85" depart="17.8925" fromJunction="3way_2" toJunction="3way_95"/>
<trip id="86" depart="18.102999999999998" fromJunction="3way_93" toJunction="4way_56"/>
<trip id="87" depart="18.313499999999998" fromJunction="4way_28" toJunction="4way_21"/>
<trip id="88" depart="18.524" fromJunction="3way_4" toJunction="4way_45"/>
<trip id="89" depart="18.7345" fromJunction="4way_44" toJunction="3way_89"/>
<trip id="90" depart="18.945" fromJunction="3way_92" toJunction="4way_83"/>
<trip id="91" depart="19.1555" fromJunction="4way_34" toJunction="4way_28"/>
<trip id="92" depart="19.366" fromJunction="4way_14" toJunction="4way_43"/>
<trip id="93" depart="19.5765" fromJunction="3way_30" toJunction="4way_75"/>
<trip id="94" depart="19.787" fromJunction="3way_94" toJunction="4way_71"/>
<trip id="95" depart="19.9975" fromJunction="4way_38" toJunction="3way_97"/>
<trip id="96" depart="20.208" fromJunction="4way_82" toJunction="4way_75"/>
<trip id="97" depart="20.418499999999998" fromJunction="3way_80" toJunction="3way_93"/>
<trip id="98" depart="20.628999999999998" fromJunction="4way_22" toJunction="3way_6"/>
<trip id="99" depart="20.8395" fromJunction="4way_35" toJunction="3way_30"/>
<trip id="100" depart="21.05" fromJunction="3way_97" toJunction="4way_51"/>
<trip id="101" depart="21.2605" fromJunction="3way_7" toJunction="3way_3"/>
<trip id="102" depart="21.471" fromJunction="4way_42" toJunction="4way_25"/>
<trip id="103" depart="21.6815" fromJunction="4way_77" toJunction="4way_43"/>
<trip id="104" depart="21.892" fromJunction="3way_94" toJunction="4way_88"/>
<trip id="105" depart="22.1025" fromJunction="3way_70" toJunction="4way_84"/>
<trip id="106" depart="22.313" fromJunction="4way_16" toJunction="3way_2"/>
<trip id="107" depart="22.5235" fromJunction="4way_51" toJunction="3way_20"/>
<trip id="108" depart="22.733999999999998" fromJunction="4way_86" toJunction="4way_14"/>
<trip id="109" depart="22.944499999999998" fromJunction="4way_47" toJunction="4way_54"/>
<trip id="110" depart="23.154999999999998" fromJunction="4way_56" toJunction="3way_60"/>
<trip id="111" depart="23.3655" fromJunction="4way_48" toJunction="3way_97"/>
<trip id="112" depart="23.576" fromJunction="3way_94" toJunction="4way_25"/>
<trip id="113" depart="23.7865" fromJunction="4way_75" toJunction="4way_38"/>
<trip id="114" depart="23.997" fromJunction="3way_94" toJunction="3way_80"/>
<trip id="115" depart="24.2075" fromJunction="3way_3" toJunction="4way_23"/>
<trip id="116" depart="24.418" fromJunction="4way_12" toJunction="3way_95"/>
<trip id="117" depart="24.6285" fromJunction="4way_52" toJunction="4way_41"/>
<trip id="118" depart="24.839" fromJunction="4way_14" toJunction="3way_60"/>
<trip id="119" depart="25.0495" fromJunction="3way_49" toJunction="4way_37"/>
<trip id="120" depart="25.259999999999998" fromJunction="3way_59" toJunction="4way_23"/>
<trip id="121" depart="25.470499999999998" fromJunction="4way_71" toJunction="4way_55"/>
<trip id="122" depart="25.680999999999997" fromJunction="3way_97" toJunction="4way_73"/>
<trip id="123" depart="25.8915" fromJunction="4way_72" toJunction="3way_69"/>
<trip id="124" depart="26.102" fromJunction="4way_38" toJunction="4way_31"/>
<trip id="125" depart="26.3125" fromJunction="4way_85" toJunction="4way_26"/>
<trip id="126" depart="26.523" fromJunction="3way_19" toJunction="4way_77"/>
<trip id="127" depart="26.7335" fromJunction="4way_14" toJunction="4way_63"/>
<trip id="128" depart="26.944" fromJunction="3way_40" toJunction="4way_58"/>
<trip id="129" depart="27.1545" fromJunction="3way_29" toJunction="3way_91"/>
<trip id="130" depart="27.365" fromJunction="4way_28" toJunction="3way_2"/>
<trip id="131" depart="27.575499999999998" fromJunction="4way_46" toJunction="4way_15"/>
<trip id="132" depart="27.785999999999998" fromJunction="4way_14" toJunction="3way_50"/>
<trip id="133" depart="27.996499999999997" fromJunction="4way_72" toJunction="3way_7"/>
<trip id="134" depart="28.207" fromJunction="4way_57" toJunction="4way_68"/>
<trip id="135" depart="28.4175" fromJunction="4way_58" toJunction="4way_11"/>
<trip id="136" depart="28.628" fromJunction="4way_48" toJunction="3way_92"/>
<trip id="137" depart="28.8385" fromJunction="4way_56" toJunction="4way_38"/>
<trip id="138" depart="29.049" fromJunction="4way_47" toJunction="4way_54"/>
<trip id="139" depart="29.2595" fromJunction="4way_27" toJunction="3way_40"/>
<trip id="140" depart="29.47" fromJunction="3way_2" toJunction="4way_44"/>
<trip id="141" depart="29.6805" fromJunction="3way_79" toJunction="4way_21"/>
<trip id="142" depart="29.891" fromJunction="4way_62" toJunction="4way_78"/>
<trip id="143" depart="30.101499999999998" fromJunction="4way_64" toJunction="4way_82"/>
<trip id="144" depart="30.311999999999998" fromJunction="3way_69" toJunction="4way_41"/>
<trip id="145" depart="30.522499999999997" fromJunction="3way_96" toJunction="4way_76"/>
<trip id="146" depart="30.733" fromJunction="3way_93" toJunction="4way_23"/>
<trip id="147" depart="30.9435" fromJunction="4way_37" toJunction="3way_29"/>
<trip id="148" depart="31.154" fromJunction="4way_58" toJunction="4way_68"/>
<trip id="149" depart="31.3645" fromJunction="4way_36" toJunction="4way_87"/>
<trip id="150" depart="31.575" fromJunction="3way_8" toJunction="3way_10"/>
<trip id="151" depart="31.7855" fromJunction="3way_92" toJunction="4way_81"/>
<trip id="152" depart="31.996" fromJunction="3way_6" toJunction="3way_59"/>
<trip id="153" depart="32.2065" fromJunction="3way_2" toJunction="4way_65"/>
<trip id="154" depart="32.417" fromJunction="3way_79" toJunction="4way_26"/>
<trip id="155" depart="32.6275" fromJunction="3way_19" toJunction="3way_8"/>
<trip id="156" depart="32.838" fromJunction="3way_91" toJunction="4way_15"/>
<trip id="157" depart="33.0485" fromJunction="4way_63" toJunction="4way_12"/>
<trip id="158" depart="33.259" fromJunction="4way_65" toJunction="4way_37"/>
<trip id="159" depart="33.4695" fromJunction="3way_59" toJunction="3way_70"/>
<trip id="160" depart="33.68" fromJunction="3way_40" toJunction="3way_6"/>
<trip id="161" depart="33.890499999999996" fromJunction="4way_42" toJunction="3way_70"/>
<trip id="162" depart="34.101" fromJunction="4way_35" toJunction="4way_25"/>
<trip id="163" depart="34.3115" fromJunction="4way_51" toJunction="3way_50"/>
<trip id="164" depart="34.522" fromJunction="4way_46" toJunction="3way_97"/>
<trip id="165" depart="34.7325" fromJunction="4way_35" toJunction="3way_6"/>
<trip id="166" depart="34.943" fromJunction="4way_41" toJunction="3way_80"/>
<trip id="167" depart="35.1535" fromJunction="3way_60" toJunction="4way_14"/>
<trip id="168" depart="35.364" fromJunction="3way_96" toJunction="4way_41"/>
<trip id="169" depart="35.5745" fromJunction="3way_5" toJunction="4way_52"/>
<trip id="170" depart="35.785" fromJunction="3way_8" toJunction="4way_56"/>
<trip id="171" depart="35.9955" fromJunction="3way_30" toJunction="4way_23"/>
<trip id="172" depart="36.205999999999996" fromJunction="4way_58" toJunction="4way_83"/>
<trip id="173" depart="36.4165" fromJunction="3way_4" toJunction="4way_64"/>
<trip id="174" depart="36.626999999999995" fromJunction="4way_13" toJunction="4way_22"/>
<trip id="175" depart="36.8375" fromJunction="4way_25" toJunction="4way_43"/>
<trip id="176" depart="37.048" fromJunction="3way_59" toJunction="3way_60"/>
<trip id="177" depart="37.2585" fromJunction="4way_48" toJunction="4way_61"/>
<trip id="178" depart="37.469" fromJunction="4way_77" toJunction="3way_97"/>
<trip id="179" depart="37.6795" fromJunction="4way_42" toJunction="4way_53"/>
<trip id="180" depart="37.89" fromJunction="4way_52" toJunction="4way_57"/>
<trip id="181" depart="38.1005" fromJunction="4way_71" toJunction="4way_65"/>
<trip id="182" depart="38.311" fromJunction="4way_35" toJunction="4way_77"/>
<trip id="183" depart="38.521499999999996" fromJunction="3way_10" toJunction="4way_45"/>
<trip id="184" depart="38.732" fromJunction="4way_64" toJunction="4way_16"/>
<trip id="185" depart="38.942499999999995" fromJunction="3way_89" toJunction="3way_91"/>
<trip id="186" depart="39.153" fromJunction="4way_58" toJunction="4way_56"/>
<trip id="187" depart="39.3635" fromJunction="4way_14" toJunction="4way_42"/>
<trip id="188" depart="39.574" fromJunction="4way_42" toJunction="4way_37"/>
<trip id="189" depart="39.7845" fromJunction="4way_83" toJunction="4way_48"/>
<trip id="190" depart="39.995" fromJunction="4way_87" toJunction="4way_76"/>
<trip id="191" depart="40.2055" fromJunction="3way_89" toJunction="4way_76"/>
<trip id="192" depart="40.416" fromJunction="4way_71" toJunction="4way_54"/>
<trip id="193" depart="40.6265" fromJunction="4way_12" toJunction="3way_7"/>
<trip id="194" depart="40.836999999999996" fromJunction="4way_27" toJunction="3way_80"/>
<trip id="195" depart="41.0475" fromJunction="4way_58" toJunction="3way_4"/>
<trip id="196" depart="41.257999999999996" fromJunction="3way_97" toJunction="3way_2"/>
<trip id="197" depart="41.4685" fromJunction="4way_28" toJunction="4way_71"/>
<trip id="198" depart="41.679" fromJunction="4way_38" toJunction="3way_29"/>
<trip id="199" depart="41.8895" fromJunction="4way_42" toJunction="4way_47"/>
<trip id="200" depart="42.1" fromJunction="3way_92" toJunction="3way_10"/>
<trip id="201" depart="42.3105" fromJunction="3way_4" toJunction="4way_34"/>
<trip id="202" depart="42.521" fromJunction="4way_22" toJunction="3way_2"/>
<trip id="203" depart="42.7315" fromJunction="3way_80" toJunction="3way_7"/>
<trip id="204" depart="42.942" fromJunction="3way_80" toJunction="3way_93"/>
<trip id="205" depart="43.152499999999996" fromJunction="3way_2" toJunction="3way_59"/>
<trip id="206" depart="43.363" fromJunction="4way_44" toJunction="3way_49"/>
<trip id="207" depart="43.573499999999996" fromJunction="4way_88" toJunction="4way_68"/>
<trip id="208" depart="43.784" fromJunction="3way_89" toJunction="4way_81"/>
<trip id="209" depart="43.994499999999995" fromJunction="4way_82" toJunction="4way_64"/>
<trip id="210" depart="44.205" fromJunction="3way_7" toJunction="4way_78"/>
<trip id="211" depart="44.4155" fromJunction="3way_50" toJunction="4way_46"/>
<trip id="212" depart="44.626" fromJunction="4way_84" toJunction="3way_91"/>
<trip id="213" depart="44.8365" fromJunction="4way_84" toJunction="3way_91"/>
<trip id="214" depart="45.047" fromJunction="4way_12" toJunction="4way_23"/>
<trip id="215" depart="45.2575" fromJunction="3way_50" toJunction="4way_63"/>
<trip id="216" depart="45.467999999999996" fromJunction="4way_81" toJunction="4way_45"/>
<trip id="217" depart="45.6785" fromJunction="4way_86" toJunction="4way_31"/>
<trip id="218" depart="45.888999999999996" fromJunction="3way_5" toJunction="4way_18"/>
<trip id="219" depart="46.0995" fromJunction="4way_21" toJunction="3way_92"/>
<trip id="220" depart="46.309999999999995" fromJunction="4way_78" toJunction="4way_76"/>
<trip id="221" depart="46.5205" fromJunction="4way_77" toJunction="4way_68"/>
<trip id="222" depart="46.731" fromJunction="4way_88" toJunction="3way_40"/>
<trip id="223" depart="46.9415" fromJunction="3way_39" toJunction="3way_91"/>
<trip id="224" depart="47.152" fromJunction="3way_92" toJunction="4way_48"/>
<trip id="225" depart="47.3625" fromJunction="3way_6" toJunction="4way_35"/>
<trip id="226" depart="47.573" fromJunction="4way_57" toJunction="4way_75"/>
<trip id="227" depart="47.7835" fromJunction="4way_51" toJunction="3way_60"/>
<trip id="228" depart="47.994" fromJunction="4way_85" toJunction="4way_41"/>
<trip id="229" depart="48.204499999999996" fromJunction="3way_98" toJunction="3way_92"/>
<trip id="230" depart="48.415" fromJunction="3way_30" toJunction="4way_42"/>
<trip id="231" depart="48.625499999999995" fromJunction="3way_92" toJunction="4way_17"/>
<trip id="232" depart="48.836" fromJunction="4way_38" toJunction="4way_13"/>
<trip id="233" depart="49.0465" fromJunction="4way_47" toJunction="4way_54"/>
<trip id="234" depart="49.257" fromJunction="4way_16" toJunction="4way_38"/>
<trip id="235" depart="49.4675" fromJunction="4way_58" toJunction="4way_45"/>
<trip id="236" depart="49.678" fromJunction="4way_42" toJunction="4way_88"/>
<trip id="237" depart="49.8885" fromJunction="3way_40" toJunction="3way_7"/>
<trip id="238" depart="50.099" fromJunction="4way_12" toJunction="3way_79"/>
<trip id="239" depart="50.3095" fromJunction="4way_24" toJunction="3way_59"/>
<trip id="240" depart="50.519999999999996" fromJunction="4way_67" toJunction="4way_51"/>
<trip id="241" depart="50.7305" fromJunction="4way_53" toJunction="4way_58"/>
<trip id="242" depart="50.940999999999995" fromJunction="4way_14" toJunction="3way_60"/>
<trip id="243" depart="51.1515" fromJunction="4way_81" toJunction="4way_77"/>
<trip id="244" depart="51.361999999999995" fromJunction="3way_60" toJunction="4way_53"/>
<trip id="245" depart="51.5725" fromJunction="4way_71" toJunction="4way_42"/>
<trip id="246" depart="51.783" fromJunction="4way_13" toJunction="3way_91"/>
<trip id="247" depart="51.9935" fromJunction="4way_41" toJunction="3way_30"/>
<trip id="248" depart="52.204" fromJunction="4way_16" toJunction="4way_33"/>
<trip id="249" depart="52.4145" fromJunction="4way_18" toJunction="4way_11"/>
<trip id="250" depart="52.625" fromJunction="3way_5" toJunction="4way_37"/>
<trip id="251" depart="52.835499999999996" fromJunction="4way_32" toJunction="3way_80"/>
<trip id="252" depart="53.046" fromJunction="4way_21" toJunction="3way_39"/>
<trip id="253" depart="53.256499999999996" fromJunction="4way_25" toJunction="4way_85"/>
<trip id="254" depart="53.467" fromJunction="4way_55" toJunction="4way_44"/>
<trip id="255" depart="53.677499999999995" fromJunction="4way_11" toJunction="3way_95"/>
<trip id="256" depart="53.888" fromJunction="4way_57" toJunction="4way_15"/>
<trip id="257" depart="54.0985" fromJunction="3way_50" toJunction="4way_53"/>
<trip id="258" depart="54.309" fromJunction="4way_55" toJunction="3way_3"/>
<trip id="259" depart="54.5195" fromJunction="4way_41" toJunction="3way_1"/>
<trip id="260" depart="54.73" fromJunction="4way_18" toJunction="4way_33"/>
<trip id="261" depart="54.9405" fromJunction="4way_71" toJunction="3way_19"/>
<trip id="262" depart="55.150999999999996" fromJunction="4way_11" toJunction="3way_3"/>
<trip id="263" depart="55.3615" fromJunction="3way_60" toJunction="4way_44"/>
<trip id="264" depart="55.571999999999996" fromJunction="3way_49" toJunction="3way_94"/>
<trip id="265" depart="55.7825" fromJunction="4way_35" toJunction="4way_83"/>
<trip id="266" depart="55.992999999999995" fromJunction="4way_48" toJunction="4way_15"/>
<trip id="267" depart="56.2035" fromJunction="4way_74" toJunction="3way_1"/>
<trip id="268" depart="56.414" fromJunction="4way_14" toJunction="4way_24"/>
<trip id="269" depart="56.6245" fromJunction="3way_2" toJunction="4way_58"/>
<trip id="270" depart="56.835" fromJunction="4way_76" toJunction="4way_35"/>
<trip id="271" depart="57.0455" fromJunction="4way_11" toJunction="4way_13"/>
<trip id="272" depart="57.256" fromJunction="3way_29" toJunction="4way_46"/>
<trip id="273" depart="57.466499999999996" fromJunction="4way_23" toJunction="4way_32"/>
<trip id="274" depart="57.677" fromJunction="3way_19" toJunction="4way_35"/>
<trip id="275" depart="57.887499999999996" fromJunction="4way_81" toJunction="3way_93"/>
<trip id="276" depart="58.098" fromJunction="4way_67" toJunction="4way_44"/>
<trip id="277" depart="58.308499999999995" fromJunction="3way_59" toJunction="4way_44"/>
<trip id="278" depart="58.519" fromJunction="4way_47" toJunction="4way_78"/>
<trip id="279" depart="58.729499999999994" fromJunction="4way_18" toJunction="4way_13"/>
<trip id="280" depart="58.94" fromJunction="4way_18" toJunction="4way_43"/>
<trip id="281" depart="59.1505" fromJunction="4way_58" toJunction="4way_86"/>
<trip id="282" depart="59.361" fromJunction="3way_4" toJunction="4way_18"/>
<trip id="283" depart="59.5715" fromJunction="4way_61" toJunction="3way_98"/>
<trip id="284" depart="59.782" fromJunction="3way_40" toJunction="4way_48"/>
<trip id="285" depart="59.9925" fromJunction="4way_67" toJunction="3way_89"/>
<trip id="286" depart="60.202999999999996" fromJunction="4way_87" toJunction="4way_32"/>
<trip id="287" depart="60.4135" fromJunction="4way_84" toJunction="3way_89"/>
<trip id="288" depart="60.623999999999995" fromJunction="3way_8" toJunction="4way_32"/>
<trip id="289" depart="60.8345" fromJunction="3way_91" toJunction="4way_35"/>
<trip id="290" depart="61.044999999999995" fromJunction="3way_6" toJunction="3way_4"/>
<trip id="291" depart="61.2555" fromJunction="4way_87" toJunction="3way_6"/>
<trip id="292" depart="61.466" fromJunction="4way_77" toJunction="4way_85"/>
<trip id="293" depart="61.6765" fromJunction="4way_33" toJunction="4way_15"/>
<trip id="294" depart="61.887" fromJunction="4way_88" toJunction="3way_30"/>
<trip id="295" depart="62.0975" fromJunction="4way_62" toJunction="4way_31"/>
<trip id="296" depart="62.308" fromJunction="4way_78" toJunction="4way_51"/>
<trip id="297" depart="62.518499999999996" fromJunction="3way_10" toJunction="3way_98"/>
<trip id="298" depart="62.729" fromJunction="3way_7" toJunction="4way_25"/>
<trip id="299" depart="62.939499999999995" fromJunction="4way_62" toJunction="4way_34"/>
<trip id="300" depart="63.15" fromJunction="3way_92" toJunction="3way_50"/>
<trip id="301" depart="63.360499999999995" fromJunction="4way_41" toJunction="4way_23"/>
<trip id="302" depart="63.571" fromJunction="4way_11" toJunction="4way_42"/>
<trip id="303" depart="63.7815" fromJunction="3way_59" toJunction="4way_68"/>
<trip id="304" depart="63.992" fromJunction="4way_11" toJunction="3way_29"/>
<trip id="305" depart="64.2025" fromJunction="4way_84" toJunction="4way_14"/>
<trip id="306" depart="64.413" fromJunction="4way_88" toJunction="4way_71"/>
<trip id="307" depart="64.62349999999999" fromJunction="4way_65" toJunction="4way_21"/>
<trip id="308" depart="64.834" fromJunction="4way_76" toJunction="4way_64"/>
<trip id="309" depart="65.0445" fromJunction="4way_67" toJunction="4way_68"/>
<trip id="310" depart="65.255" fromJunction="4way_45" toJunction="4way_26"/>
<trip id="311" depart="65.46549999999999" fromJunction="3way_79" toJunction="4way_11"/>
<trip id="312" depart="65.676" fromJunction="3way_91" toJunction="3way_7"/>
<trip id="313" depart="65.8865" fromJunction="4way_33" toJunction="4way_22"/>
<trip id="314" depart="66.097" fromJunction="4way_58" toJunction="4way_36"/>
<trip id="315" depart="66.3075" fromJunction="3way_39" toJunction="3way_49"/>
<trip id="316" depart="66.518" fromJunction="4way_85" toJunction="4way_14"/>
<trip id="317" depart="66.7285" fromJunction="4way_28" toJunction="4way_27"/>
<trip id="318" depart="66.939" fromJunction="4way_71" toJunction="4way_78"/>
<trip id="319" depart="67.1495" fromJunction="3way_79" toJunction="4way_51"/>
<trip id="320" depart="67.36" fromJunction="4way_84" toJunction="4way_25"/>
<trip id="321" depart="67.5705" fromJunction="3way_29" toJunction="4way_37"/>
<trip id="322" depart="67.78099999999999" fromJunction="4way_83" toJunction="4way_82"/>
<trip id="323" depart="67.9915" fromJunction="3way_98" toJunction="3way_91"/>
<trip id="324" depart="68.202" fromJunction="3way_6" toJunction="4way_37"/>
<trip id="325" depart="68.4125" fromJunction="3way_49" toJunction="4way_62"/>
<trip id="326" depart="68.623" fromJunction="4way_78" toJunction="4way_42"/>
<trip id="327" depart="68.8335" fromJunction="4way_37" toJunction="4way_12"/>
<trip id="328" depart="69.044" fromJunction="3way_60" toJunction="3way_49"/>
<trip id="329" depart="69.2545" fromJunction="4way_21" toJunction="4way_15"/>
<trip id="330" depart="69.465" fromJunction="4way_64" toJunction="4way_55"/>
<trip id="331" depart="69.6755" fromJunction="4way_22" toJunction="4way_71"/>
<trip id="332" depart="69.886" fromJunction="3way_7" toJunction="4way_34"/>
<trip id="333" depart="70.09649999999999" fromJunction="4way_74" toJunction="4way_76"/>
<trip id="334" depart="70.307" fromJunction="4way_43" toJunction="4way_65"/>
<trip id="335" depart="70.5175" fromJunction="4way_71" toJunction="3way_39"/>
<trip id="336" depart="70.728" fromJunction="3way_20" toJunction="4way_71"/>
<trip id="337" depart="70.93849999999999" fromJunction="4way_75" toJunction="3way_3"/>
<trip id="338" depart="71.149" fromJunction="4way_34" toJunction="3way_39"/>
<trip id="339" depart="71.3595" fromJunction="4way_54" toJunction="4way_45"/>
<trip id="340" depart="71.57" fromJunction="3way_29" toJunction="4way_58"/>
<trip id="341" depart="71.7805" fromJunction="3way_3" toJunction="4way_47"/>
<trip id="342" depart="71.991" fromJunction="4way_71" toJunction="4way_43"/>
<trip id="343" depart="72.2015" fromJunction="4way_41" toJunction="4way_33"/>
<trip id="344" depart="72.41199999999999" fromJunction="3way_2" toJunction="3way_96"/>
<trip id="345" depart="72.6225" fromJunction="4way_17" toJunction="4way_23"/>
<trip id="346" depart="72.833" fromJunction="3way_93" toJunction="4way_41"/>
<trip id="347" depart="73.0435" fromJunction="3way_19" toJunction="3way_8"/>
<trip id="348" depart="73.25399999999999" fromJunction="3way_29" toJunction="3way_93"/>
<trip id="349" depart="73.4645" fromJunction="3way_7" toJunction="3way_70"/>
<trip id="350" depart="73.675" fromJunction="4way_37" toJunction="3way_7"/>
<trip id="351" depart="73.8855" fromJunction="4way_63" toJunction="3way_89"/>
<trip id="352" depart="74.096" fromJunction="4way_42" toJunction="4way_36"/>
<trip id="353" depart="74.3065" fromJunction="3way_95" toJunction="3way_79"/>
<trip id="354" depart="74.517" fromJunction="4way_33" toJunction="4way_22"/>
<trip id="355" depart="74.72749999999999" fromJunction="4way_46" toJunction="4way_21"/>
<trip id="356" depart="74.938" fromJunction="4way_28" toJunction="4way_16"/>
<trip id="357" depart="75.1485" fromJunction="4way_67" toJunction="3way_3"/>
<trip id="358" depart="75.359" fromJunction="4way_57" toJunction="4way_61"/>
<trip id="359" depart="75.56949999999999" fromJunction="4way_78" toJunction="4way_35"/>
<trip id="360" depart="75.78" fromJunction="4way_31" toJunction="4way_16"/>
<trip id="361" depart="75.9905" fromJunction="4way_51" toJunction="4way_13"/>
<trip id="362" depart="76.201" fromJunction="3way_70" toJunction="4way_41"/>
<trip id="363" depart="76.4115" fromJunction="4way_25" toJunction="4way_82"/>
<trip id="364" depart="76.622" fromJunction="4way_33" toJunction="3way_60"/>
<trip id="365" depart="76.8325" fromJunction="3way_89" toJunction="3way_49"/>
<trip id="366" depart="77.04299999999999" fromJunction="4way_68" toJunction="3way_5"/>
<trip id="367" depart="77.2535" fromJunction="3way_97" toJunction="3way_1"/>
<trip id="368" depart="77.464" fromJunction="3way_8" toJunction="4way_34"/>
<trip id="369" depart="77.6745" fromJunction="4way_65" toJunction="4way_57"/>
<trip id="370" depart="77.88499999999999" fromJunction="4way_13" toJunction="4way_58"/>
<trip id="371" depart="78.0955" fromJunction="4way_53" toJunction="3way_40"/>
<trip id="372" depart="78.306" fromJunction="4way_23" toJunction="4way_28"/>
<trip id="373" depart="78.5165" fromJunction="4way_57" toJunction="3way_70"/>
<trip id="374" depart="78.727" fromJunction="3way_1" toJunction="4way_41"/>
<trip id="375" depart="78.9375" fromJunction="3way_20" toJunction="3way_91"/>
<trip id="376" depart="79.148" fromJunction="4way_52" toJunction="4way_37"/>