<routes xmlns:xsi="http://www.w3.org/2001/XMLSchema-instance" xsi:noNamespaceSchemaLocation="http://sumo.dlr.de/xsd/routes_file.xsd">
<trip id="0" depart="0.0" fromJunction="4way_24" toJunction="4way_36"/>
<trip id="1" depart="0.204" fromJunction="4way_36" toJunction="4way_23"/>
<trip id="2" depart="0.408" fromJunction="4way_37" toJunction="3way_7"/>
<trip id="3" depart="0.612" fromJunction="4way_12" toJunction="3way_7"/>
<trip id="4" depart="0.816" fromJunction="3way_21" toJunction="4way_33"/>
<trip id="5" depart="1.02" fromJunction="4way_29" toJunction="4way_11"/>
<trip id="6" depart="1.224" fromJunction="4way_19" toJunction="4way_9"/>
<trip id="7" depart="1.428" fromJunction="4way_25" toJunction="3way_1"/>
<trip id="8" depart="1.632" fromJunction="4way_39" toJunction="4way_11"/>
<trip id="9" depart="1.8359999999999999" fromJunction="4way_11" toJunction="4way_40"/>
<trip id="10" depart="2.04" fromJunction="4way_11" toJunction="4way_8"/>
<trip id="11" depart="2.2439999999999998" fromJunction="4way_30" toJunction="3way_13"/>
<trip id="12" depart="2.448" fromJunction="4way_26" toJunction="3way_20"/>
<trip id="13" depart="2.6519999999999997" fromJunction="3way_14" toJunction="4way_29"/>
<trip id="14" depart="2.856" fromJunction="4way_38" toJunction="3way_46"/>
<trip id="15" depart="3.0599999999999996" fromJunction="4way_9" toJunction="4way_8"/>
<trip id="16" depart="3.264" fromJunction="4way_23" toJunction="3way_1"/>
<trip id="17" depart="3.468" fromJunction="4way_10" toJunction="4way_26"/>
<trip id="18" depart="3.6719999999999997" fromJunction="3way_7" toJunction="3way_28"/>
<trip id="19" depart="3.876" fromJunction="3way_3" toJunction="4way_17"/>
<trip id="20" depart="4.08" fromJunction="3way_13" toJunction="3way_41"/>
<trip id="21" depart="4.284" fromJunction="3way_28" toJunction="3way_43"/>
<trip id="22" depart="4.4879999999999995" fromJunction="3way_7" toJunction="4way_9"/>
<trip id="23" depart="4.691999999999999" fromJunction="3way_5" toJunction="4way_40"/>
<trip id="24" depart="4.896" fromJunction="3way_27" toJunction="3way_41"/>
<trip id="25" depart="5.1" fromJunction="3way_46" toJunction="4way_37"/>
<trip id="26" depart="5.303999999999999" fromJunction="3way_47" toJunction="4way_8"/>
<trip id="27" depart="5.508" fromJunction="3way_5" toJunction="3way_27"/>
<trip id="28" depart="5.712" fromJunction="3way_20" toJunction="4way_37"/>
<trip id="29" depart="5.9159999999999995" fromJunction="3way_28" toJunction="3way_34"/>
<trip id="30" depart="6.119999999999999" fromJunction="3way_5" toJunction="4way_18"/>
<trip id="31" depart="6.324" fromJunction="3way_5" toJunction="4way_25"/>
<trip id="32" depart="6.528" fromJunction="4way_15" toJunction="4way_33"/>
<trip id="33" depart="6.731999999999999" fromJunction="4way_23" toJunction="4way_33"/>
<trip id="34" depart="6.936" fromJunction="3way_2" toJunction="4way_31"/>
<trip id="35" depart="7.14" fromJunction="3way_13" toJunction="3way_45"/>
<trip id="36" depart="7.343999999999999" fromJunction="3way_13" toJunction="3way_44"/>
<trip id="37" depart="7.547999999999999" fromJunction="3way_14" toJunction="3way_43"/>
<trip id="38" depart="7.752" fromJunction="4way_17" toJunction="3way_3"/>
<trip id="39" depart="7.9559999999999995" fromJunction="3way_46" toJunction="4way_9"/>
<trip id="40" depart="8.16" fromJunction="3way_5" toJunction="4way_29"/>
<trip id="41" depart="8.363999999999999" fromJunction="4way_19" toJunction="4way_9"/>
<trip id="42" depart="8.568" fromJunction="4way_10" toJunction="3way_43"/>
<trip id="43" depart="8.772" fromJunction="4way_24" toJunction="3way_13"/>
<trip id="44" depart="8.975999999999999" fromJunction="3way_34" toJunction="3way_44"/>
<trip id="45" depart="9.18" fromJunction="3way_1" toJunction="4way_16"/>
<trip id="46" depart="9.383999999999999" fromJunction="3way_1" toJunction="4way_25"/>
<trip id="47" depart="9.588" fromJunction="3way_45" toJunction="4way_10"/>
<trip id="48" depart="9.792" fromJunction="4way_33" toJunction="4way_31"/>
<trip id="49" depart="9.995999999999999" fromJunction="4way_9" toJunction="3way_46"/>
<trip id="50" depart="10.2" fromJunction="4way_9" toJunction="4way_16"/>
<trip id="51" depart="10.404" fromJunction="4way_26" toJunction="3way_47"/>
<trip id="52" depart="10.607999999999999" fromJunction="4way_32" toJunction="4way_8"/>
<trip id="53" depart="10.812" fromJunction="3way_44" toJunction="4way_17"/>
<trip id="54" depart="11.016" fromJunction="3way_21" toJunction="4way_18"/>
<trip id="55" depart="11.219999999999999" fromJunction="4way_16" toJunction="4way_39"/>
<trip id="56" depart="11.424" fromJunction="4way_17" toJunction="4way_39"/>
<trip id="57" depart="11.628" fromJunction="4way_22" toJunction="4way_24"/>
<trip id="58" depart="11.831999999999999" fromJunction="4way_30" toJunction="4way_33"/>
<trip id="59" depart="12.036" fromJunction="4way_23" toJunction="3way_7"/>
<trip id="60" depart="12.239999999999998" fromJunction="3way_44" toJunction="3way_1"/>
<trip id="61" depart="12.443999999999999" fromJunction="3way_44" toJunction="4way_37"/>
<trip id="62" depart="12.648" fromJunction="3way_7" toJunction="4way_23"/>
<trip id="63" depart="12.851999999999999" fromJunction="3way_44" toJunction="3way_20"/>
<trip id="64" depart="13.056" fromJunction="4way_16" toJunction="4way_9"/>
<trip id="65" depart="13.26" fromJunction="4way_37" toJunction="4way_9"/>
<trip id="66" depart="13.463999999999999" fromJunction="3way_7" toJunction="4way_37"/>
<trip id="67" depart="13.668" fromJunction="3way_28" toJunction="4way_12"/>
<trip id="68" depart="13.872" fromJunction="4way_12" toJunction="3way_7"/>
<trip id="69" depart="14.075999999999999" fromJunction="4way_17" toJunction="4way_18"/>
<trip id="70" depart="14.28" fromJunction="4way_19" toJunction="3way_5"/>
<trip id="71" depart="14.483999999999998" fromJunction="4way_40" toJunction="4way_24"/>
<trip id="72" depart="14.687999999999999" fromJunction="4way_39" toJunction="3way_20"/>
<trip id="73" depart="14.892" fromJunction="4way_23" toJunction="3way_27"/>
<trip id="74" depart="15.095999999999998" fromJunction="4way_32" toJunction="3way_13"/>
<trip id="75" depart="15.299999999999999" fromJunction="4way_9" toJunction="4way_18"/>
<trip id="76" depart="15.504" fromJunction="3way_4" toJunction="3way_14"/>
<trip id="77" depart="15.707999999999998" fromJunction="4way_8" toJunction="4way_17"/>
<trip id="78" depart="15.911999999999999" fromJunction="4way_32" toJunction="4way_24"/>
<trip id="79" depart="16.116" fromJunction="4way_32" toJunction="4way_33"/>
<trip id="80" depart="16.32" fromJunction="3way_28" toJunction="3way_1"/>
<trip id="81" depart="16.523999999999997" fromJunction="3way_27" toJunction="4way_24"/>
<trip id="82" depart="16.727999999999998" fromJunction="3way_3" toJunction="4way_29"/>
<trip id="83" depart="16.932" fromJunction="3way_1" toJunction="3way_34"/>
<trip id="84" depart="17.136" fromJunction="3way_47" toJunction="4way_11"/>
<trip id="85" depart="17.34" fromJunction="4way_19" toJunction="3way_35"/>
<trip id="86" depart="17.544" fromJunction="3way_2" toJunction="4way_17"/>
<trip id="87" depart="17.747999999999998" fromJunction="4way_23" toJunction="3way_27"/>
<trip id="88" depart="17.951999999999998" fromJunction="3way_47" toJunction="4way_9"/>
<trip id="89" depart="18.156" fromJunction="4way_23" toJunction="4way_26"/>
<trip id="90" depart="18.36" fromJunction="4way_16" toJunction="4way_36"/>
<trip id="91" depart="18.564" fromJunction="3way_43" toJunction="4way_24"/>
<trip id="92" depart="18.767999999999997" fromJunction="3way_41" toJunction="3way_21"/>
<trip id="93" depart="18.971999999999998" fromJunction="4way_26" toJunction="3way_34"/>
<trip id="94" depart="19.176" fromJunction="4way_22" toJunction="4way_31"/>
<trip id="95" depart="19.38" fromJunction="3way_46" toJunction="3way_47"/>
<trip id="96" depart="19.584" fromJunction="3way_7" toJunction="3way_3"/>
<trip id="97" depart="19.788" fromJunction="4way_17" toJunction="3way_43"/>
<trip id="98" depart="19.991999999999997" fromJunction="3way_34" toJunction="3way_28"/>
<trip id="99" depart="20.195999999999998" fromJunction="3way_4" toJunction="3way_2"/>
<trip id="100" depart="20.4" fromJunction="4way_8" toJunction="4way_10"/>
<trip id="101" depart="20.604" fromJunction="4way_12" toJunction="4way_36"/>
<trip id="102" depart="20.808" fromJunction="3way_41" toJunction="4way_40"/>
<trip id="103" depart="21.011999999999997" fromJunction="3way_46" toJunction="4way_37"/>
<trip id="104" depart="21.215999999999998" fromJunction="4way_38" toJunction="3way_1"/>
<trip id="105" depart="21.419999999999998" fromJunction="3way_21" toJunction="3way_43"/>
<trip id="106" depart="21.624" fromJunction="4way_25" toJunction="4way_16"/>
<trip id="107" depart="21.828" fromJunction="4way_39" toJunction="4way_30"/>
<trip id="108" depart="22.032" fromJunction="4way_11" toJunction="3way_45"/>
<trip id="109" depart="22.235999999999997" fromJunction="4way_26" toJunction="3way_34"/>
<trip id="110" depart="22.439999999999998" fromJunction="3way_41" toJunction="4way_10"/>
<trip id="111" depart="22.644" fromJunction="4way_24" toJunction="4way_26"/>
<trip id="112" depart="22.848" fromJunction="3way_41" toJunction="3way_46"/>
<trip id="113" depart="23.052" fromJunction="3way_2" toJunction="4way_29"/>
<trip id="114" depart="23.256" fromJunction="3way_7" toJunction="3way_41"/>
<trip id="115" depart="23.459999999999997" fromJunction="4way_8" toJunction="3way_28"/>
<trip id="116" depart="23.663999999999998" fromJunction="4way_16" toJunction="3way_45"/>
<trip id="117" depart="23.868" fromJunction="3way_13" toJunction="4way_32"/>
<trip id="118" depart="24.072" fromJunction="3way_13" toJunction="4way_29"/>
<trip id="119" depart="24.276" fromJunction="3way_21" toJunction="4way_24"/>
<trip id="120" depart="24.479999999999997" fromJunction="3way_34" toJunction="4way_9"/>
<trip id="121" depart="24.683999999999997" fromJunction="4way_15" toJunction="3way_20"/>
<trip id="122" depart="24.887999999999998" fromJunction="4way_26" toJunction="3way_28"/>
<trip id="123" depart="25.092" fromJunction="4way_31" toJunction="4way_38"/>
<trip id="124" depart="25.296" fromJunction="3way_4" toJunction="4way_12"/>
<trip id="125" depart="25.5" fromJunction="4way_16" toJunction="4way_36"/>
<trip id="126" depart="25.703999999999997" fromJunction="3way_44" toJunction="4way_33"/>
<trip id="127" depart="25.907999999999998" fromJunction="3way_5" toJunction="3way_47"/>
<trip id="128" depart="26.112" fromJunction="4way_19" toJunction="3way_1"/>
<trip id="129" depart="26.316" fromJunction="4way_11" toJunction="4way_10"/>
<trip id="130" depart="26.52" fromJunction="4way_16" toJunction="3way_45"/>
<trip id="131" depart="26.723999999999997" fromJunction="4way_15" toJunction="3way_3"/>
<trip id="132" depart="26.927999999999997" fromJunction="4way_39" toJunction="4way_33"/>
<trip id="133" depart="27.131999999999998" fromJunction="4way_33" toJunction="3way_35"/>
<trip id="134" depart="27.336" fromJunction="4way_26" toJunction="3way_47"/>
<trip id="135" depart="27.54" fromJunction="4way_11" toJunction="4way_26"/>
<trip id="136" depart="27.744" fromJunction="4way_39" toJunction="4way_30"/>
<trip id="137" depart="27.947999999999997" fromJunction="4way_32" toJunction="3way_44"/>
<trip id="138" depart="28.151999999999997" fromJunction="3way_1" toJunction="4way_23"/>
<trip id="139" depart="28.355999999999998" fromJunction="3way_20" toJunction="3way_35"/>
<trip id="140" depart="28.56" fromJunction="4way_15" toJunction="4way_40"/>
<trip id="141" depart="28.764" fromJunction="4way_30" toJunction="4way_22"/>
<trip id="142" depart="28.967999999999996" fromJunction="3way_20" toJunction="3way_28"/>
<trip id="143" depart="29.171999999999997" fromJunction="3way_34" toJunction="4way_18"/>
<trip id="144" depart="29.375999999999998" fromJunction="3way_47" toJunction="4way_29"/>
<trip id="145" depart="29.58" fromJunction="4way_32" toJunction="3way_5"/>
<trip id="146" depart="29.784" fromJunction="4way_38" toJunction="4way_12"/>
<trip id="147" depart="29.988" fromJunction="3way_4" toJunction="3way_43"/>
<trip id="148" depart="30.191999999999997" fromJunction="3way_47" toJunction="3way_14"/>
<trip id="149" depart="30.395999999999997" fromJunction="3way_3" toJunction="3way_13"/>
<trip id="150" depart="30.599999999999998" fromJunction="3way_1" toJunction="4way_24"/>
<trip id="151" depart="30.804" fromJunction="3way_20" toJunction="4way_38"/>
<trip id="152" depart="31.008" fromJunction="3way_5" toJunction="3way_4"/>
<trip id="153" depart="31.212" fromJunction="3way_46" toJunction="4way_10"/>
<trip id="154" depart="31.415999999999997" fromJunction="4way_9" toJunction="3way_14"/>
<trip id="155" depart="31.619999999999997" fromJunction="4way_24" toJunction="4way_32"/>
<trip id="156" depart="31.823999999999998" fromJunction="3way_13" toJunction="3way_45"/>
<trip id="157" depart="32.028" fromJunction="3way_44" toJunction="3way_3"/>
<trip id="158" depart="32.232" fromJunction="4way_8" toJunction="3way_46"/>
<trip id="159" depart="32.436" fromJunction="4way_17" toJunction="4way_10"/>
<trip id="160" depart="32.64" fromJunction="3way_21" toJunction="3way_45"/>
<trip id="161" depart="32.844" fromJunction="4way_11" toJunction="3way_34"/>
<trip id="162" depart="33.047999999999995" fromJunction="4way_17" toJunction="3way_3"/>
<trip id="163" depart="33.251999999999995" fromJunction="4way_38" toJunction="4way_11"/>
<trip id="164" depart="33.455999999999996" fromJunction="3way_28" toJunction="3way_46"/>
<trip id="165" depart="33.66" fromJunction="3way_45" toJunction="4way_16"/>
<trip id="166" depart="33.864" fromJunction="3way_34" toJunction="3way_28"/>
<trip id="167" depart="34.068" fromJunction="3way_3" toJunction="4way_8"/>
<trip id="168" depart="34.272" fromJunction="3way_4" toJunction="4way_11"/>
<trip id="169" depart="34.476" fromJunction="3way_44" toJunction="4way_29"/>
<trip id="170" depart="34.68" fromJunction="4way_33" toJunction="4way_9"/>
<trip id="171" depart="34.884" fromJunction="3way_2" toJunction="4way_37"/>
<trip id="172" depart="35.088" fromJunction="4way_22" toJunction="3way_7"/>
<trip id="173" depart="35.291999999999994" fromJunction="4way_10" toJunction="4way_36"/>
<trip id="174" depart="35.495999999999995" fromJunction="3way_13" toJunction="3way_45"/>
<trip id="175" depart="35.699999999999996" fromJunction="4way_33" toJunction="3way_21"/>
<trip id="176" depart="35.903999999999996" fromJunction="4way_12" toJunction="3way_34"/>
<trip id="177" depart="36.108" fromJunction="4way_8" toJunction="4way_36"/>
<trip id="178" depart="36.312" fromJunction="4way_8" toJunction="4way_39"/>
<trip id="179" depart="36.516" fromJunction="3way_21" toJunction="4way_24"/>
<trip id="180" depart="36.72" fromJunction="4way_17" toJunction="4way_12"/>
<trip id="181" depart="36.924" fromJunction="3way_43" toJunction="4way_17"/>
<trip id="182" depart="37.128" fromJunction="4way_30" toJunction="4way_38"/>
<trip id="183" depart="37.332" fromJunction="3way_27" toJunction="3way_47"/>
<trip id="184" depart="37.535999999999994" fromJunction="4way_33" toJunction="4way_11"/>
<trip id="185" depart="37.739999999999995" fromJunction="4way_16" toJunction="4way_8"/>
<trip id="186" depart="37.943999999999996" fromJunction="4way_8" toJunction="4way_32"/>
<trip id="187" depart="38.147999999999996" fromJunction="4way_9" toJunction="4way_26"/>
<trip id="188" depart="38.352" fromJunction="4way_12" toJunction="4way_18"/>
<trip id="189" depart="38.556" fromJunction="3way_27" toJunction="4way_18"/>
<trip id="190" depart="38.76" fromJunction="3way_21" toJunction="4way_30"/>
<trip id="191" depart="38.964" fromJunction="3way_7" toJunction="3way_3"/>
<trip id="192" depart="39.168" fromJunction="4way_32" toJunction="3way_46"/>
<trip id="193" depart="39.372" fromJunction="4way_33" toJunction="3way_2"/>
<trip id="194" depart="39.576" fromJunction="3way_28" toJunction="3way_35"/>
<trip id="195" depart="39.779999999999994" fromJunction="3way_34" toJunction="3way_1"/>
<trip id="196" depart="39.983999999999995" fromJunction="4way_19" toJunction="3way_14"/>
<trip id="197" depart="40.187999999999995" fromJunction="4way_26" toJunction="3way_5"/>
<trip id="198" depart="40.391999999999996" fromJunction="4way_8" toJunction="4way_39"/>
<trip id="199" depart="40.596" fromJunction="3way_47" toJunction="3way_43"/>
<trip id="200" depart="40.8" fromJunction="3way_2" toJunction="4way_23"/>
<trip id="201" depart="41.004" fromJunction="3way_7" toJunction="3way_1"/>
<trip id="202" depart="41.208" fromJunction="3way_46" toJunction="3way_4"/>
<trip id="203" depart="41.412" fromJunction="3way_46" toJunction="3way_41"/>
<trip id="204" depart="41.616" fromJunction="3way_1" toJunction="3way_13"/>
<trip id="205" depart="41.82" fromJunction="4way_23" toJunction="3way_13"/>
<trip id="206" depart="42.023999999999994" fromJunction="4way_40" toJunction="4way_33"/>
<trip id="207" depart="42.227999999999994" fromJunction="3way_27" toJunction="3way_14"/>
<trip id="208" depart="42.431999999999995" fromJunction="4way_22" toJunction="4way_30"/>
<trip id="209" depart="42.635999999999996" fromJunction="3way_3" toJunction="4way_40"/>
<trip id="210" depart="42.839999999999996" fromJunction="3way_45" toJunction="4way_11"/>
<trip id="211" depart="43.044" fromJunction="4way_37" toJunction="3way_47"/>
<trip id="212" depart="43.248" fromJunction="4way_37" toJunction="3way_46"/>
<trip id="213" depart="43.452" fromJunction="3way_7" toJunction="4way_29"/>
<trip id="214" depart="43.656" fromJunction="3way_45" toJunction="4way_36"/>
<trip id="215" depart="43.86" fromJunction="3way_14" toJunction="4way_17"/>
<trip id="216" depart="44.064" fromJunction="4way_25" toJunction="3way_28"/>
<trip id="217" depart="44.268" fromJunction="3way_3" toJunction="4way_19"/>
<trip id="218" depart="44.471999999999994" fromJunction="3way_35" toJunction="3way_47"/>
<trip id="219" depart="44.675999999999995" fromJunction="4way_40" toJunction="4way_18"/>
<trip id="220" depart="44.879999999999995" fromJunction="4way_12" toJunction="4way_33"/>
<trip id="221" depart="45.083999999999996" fromJunction="4way_40" toJunction="3way_44"/>
<trip id="222" depart="45.288" fromJunction="3way_5" toJunction="3way_46"/>
<trip id="223" depart="45.492" fromJunction="3way_47" toJunction="4way_26"/>
<trip id="224" depart="45.696" fromJunction="3way_3" toJunction="4way_17"/>
<trip id="225" depart="45.9" fromJunction="4way_39" toJunction="4way_24"/>
<trip id="226" depart="46.104" fromJunction="3way_21" toJunction="3way_45"/>
<trip id="227" depart="46.308" fromJunction="4way_31" toJunction="3way_28"/>
<trip id="228" depart="46.512" fromJunction="3way_27" toJunction="3way_47"/>
<trip id="229" depart="46.715999999999994" fromJunction="3way_44" toJunction="4way_8"/>
<trip id="230" depart="46.919999999999995" fromJunction="3way_47" toJunction="4way_25"/>
<trip id="231" depart="47.123999999999995" fromJunction="4way_26" toJunction="4way_22"/>
<trip id="232" depart="47.327999999999996" fromJunction="4way_39" toJunction="4way_30"/>
<trip id="233" depart="47.532" fromJunction="4way_31" toJunction="4way_26"/>
<trip id="234" depart="47.736" fromJunction="4way_33" toJunction="4way_17"/>
<trip id="235" depart="47.94" fromJunction="4way_8" toJunction="4way_40"/>
<trip id="236" depart="48.144" fromJunction="3way_44" toJunction="3way_4"/>
<trip id="237" depart="48.348" fromJunction="3way_14" toJunction="3way_20"/>
<trip id="238" depart="48.552" fromJunction="4way_23" toJunction="3way_13"/>
<trip id="239" depart="48.756" fromJunction="4way_12" toJunction="3way_21"/>
<trip id="240" depart="48.959999999999994" fromJunction="4way_36" toJunction="4way_33"/>
<trip id="241" depart="49.163999999999994" fromJunction="4way_16" toJunction="3way_45"/>
<trip id="242" depart="49.367999999999995" fromJunction="3way_14" toJunction="4way_12"/>
<trip id="243" depart="49.571999999999996" fromJunction="3way_45" toJunction="4way_36"/>
<trip id="244" depart="49.775999999999996" fromJunction="3way_14" toJunction="4way_8"/>
<trip id="245" depart="49.98" fromJunction="4way_22" toJunction="3way_46"/>
<trip id="246" depart="50.184" fromJunction="3way_28" toJunction="3way_44"/>
<trip id="247" depart="50.388" fromJunction="4way_31" toJunction="4way_29"/>
<trip id="248" depart="50.592" fromJunction="4way_19" toJunction="3way_35"/>
<trip id="249" depart="50.796" fromJunction="3way_3" toJunction="4way_32"/>
<trip id="250" depart="51.0" fromJunction="4way_8" toJunction="3way_46"/>
<trip id="251" depart="51.20399999999999" fromJunction="3way_35" toJunction="3way_5"/>
<trip id="252" depart="51.407999999999994" fromJunction="4way_10" toJunction="4way_31"/>
<trip id="253" depart="51.611999999999995" fromJunction="4way_17" toJunction="4way_30"/>
<trip id="254" depart="51.815999999999995" fromJunction="3way_35" toJunction="3way_41"/>
<trip id="255" depart="52.019999999999996" fromJunction="4way_39" toJunction="4way_10"/>
<trip id="256" depart="52.224" fromJunction="3way_45" toJunction="4way_36"/>
<trip id="257" depart="52.428" fromJunction="4way_17" toJunction="3way_2"/>
<trip id="258" depart="52.632" fromJunction="3way_28" toJunction="3way_1"/>
<trip id="259" depart="52.836" fromJunction="4way_19" toJunction="4way_29"/>
<trip id="260" depart="53.04" fromJunction="3way_14" toJunction="3way_5"/>
<trip id="261" depart="53.244" fromJunction="3way_35" toJunction="3way_2"/>
<trip id="262" depart="53.44799999999999" fromJunction="3way_45" toJunction="4way_30"/>
<trip id="263" depart="53.651999999999994" fromJunction="3way_13" toJunction="3way_41"/>
<trip id="264" depart="53.855999999999995" fromJunction="4way_17" toJunction="4way_9"/>
<trip id="265" depart="54.059999999999995" fromJunction="4way_26" toJunction="4way_10"/>
<trip id="266" depart="54.263999999999996" fromJunction="4way_37" toJunction="3way_1"/>
<trip id="267" depart="54.467999999999996" fromJunction="4way_16" toJunction="4way_23"/>
<trip id="268" depart="54.672" fromJunction="3way_1" toJunction="4way_33"/>
<trip id="269" depart="54.876" fromJunction="4way_18" toJunction="4way_17"/>
<trip id="270" depart="55.08" fromJunction="3way_35" toJunction="4way_22"/>
<trip id="271" depart="55.284" fromJunction="3way_5" toJunction="4way_11"/>
<trip id="272" depart="55.488" fromJunction="4way_29" toJunction="3way_7"/>
<trip id="273" depart="55.69199999999999" fromJunction="3way_5" toJunction="4way_17"/>
<trip id="274" depart="55.895999999999994" fromJunction="3way_14" toJunction="3way_47"/>
<trip id="275" depart="56.099999999999994" fromJunction="4way_39" toJunction="4way_30"/>
<trip id="276" depart="56.303999999999995" fromJunction="3way_20" toJunction="4way_23"/>
<trip id="277" depart="56.507999999999996" fromJunction="4way_39" toJunction="4way_40"/>
<trip id="278" depart="56.711999999999996" fromJunction="4way_19" toJunction="4way_22"/>
<trip id="279" depart="56.916" fromJunction="4way_19" toJunction="4way_36"/>
<trip id="280" depart="57.12" fromJunction="4way_33" toJunction="4way_25"/>
<trip id="281" depart="57.324" fromJunction="3way_2" toJunction="4way_19"/>
<trip id="282" depart="57.528" fromJunction="3way_21" toJunction="3way_27"/>
<trip id="283" depart="57.732" fromJunction="3way_44" toJunction="4way_26"/>
<trip id="284" depart="57.93599999999999" fromJunction="4way_39" toJunction="3way_27"/>
<trip id="285" depart="58.13999999999999" fromJunction="4way_12" toJunction="4way_8"/>
<trip id="286" depart="58.343999999999994" fromJunction="4way_37" toJunction="3way_27"/>
<trip id="287" depart="58.547999999999995" fromJunction="3way_4" toJunction="3way_7"/>
<trip id="288" depart="58.751999999999995" fromJunction="3way_46" toJunction="4way_17"/>
<trip id="289" depart="58.955999999999996" fromJunction="3way_3" toJunction="3way_2"/>
<trip id="290" depart="59.16" fromJunction="4way_12" toJunction="3way_3"/>
<trip id="291" depart="59.364" fromJunction="4way_12" toJunction="4way_31"/>
<trip id="292" depart="59.568" fromJunction="4way_29" toJunction="4way_10"/>
<trip id="293" depart="59.772" fromJunction="4way_40" toJunction="3way_44"/>
<trip id="294" depart="59.976" fromJunction="4way_15" toJunction="3way_28"/>
<trip id="295" depart="60.17999999999999" fromJunction="4way_40" toJunction="3way_21"/>
<trip id="296" depart="60.38399999999999" fromJunction="3way_43" toJunction="3way_27"/>
<trip id="297" depart="60.587999999999994" fromJunction="3way_3" toJunction="4way_10"/>
<trip id="298" depart="60.791999999999994" fromJunction="4way_15" toJunction="4way_23"/>
<trip id="299" depart="60.995999999999995" fromJunction="3way_47" toJunction="3way_45"/>
<trip id="300" depart="61.199999999999996" fromJunction="3way_28" toJunction="4way_29"/>
<trip id="301" depart="61.403999999999996" fromJunction="3way_35" toJunction="4way_8"/>
<trip id="302" depart="61.608" fromJunction="3way_20" toJunction="4way_33"/>
<trip id="303" depart="61.812" fromJunction="3way_35" toJunction="3way_5"/>
<trip id="304" depart="62.016" fromJunction="4way_37" toJunction="4way_16"/>
<trip id="305" depart="62.22" fromJunction="4way_40" toJunction="3way_21"/>
<trip id="306" depart="62.424" fromJunction="4way_24" toJunction="3way_35"/>
<trip id="307" depart="62.62799999999999" fromJunction="4way_18" toJunction="4way_30"/>
<trip id="308" depart="62.831999999999994" fromJunction="4way_12" toJunction="4way_33"/>
<trip id="309" depart="63.035999999999994" fromJunction="4way_17" toJunction="4way_38"/>
<trip id="310" depart="63.239999999999995" fromJunction="3way_20" toJunction="3way_35"/>
<trip id="311" depart="63.443999999999996" fromJunction="3way_47" toJunction="3way_3"/>
<trip id="312" depart="63.647999999999996" fromJunction="4way_29" toJunction="3way_7"/>
<trip id="313" depart="63.852" fromJunction="4way_33" toJunction="4way_38"/>
<trip id="314" depart="64.056" fromJunction="3way_5" toJunction="3way_13"/>
<trip id="315" depart="64.25999999999999" fromJunction="4way_31" toJunction="4way_16"/>
<trip id="316" depart="64.464" fromJunction="4way_26" toJunction="4way_32"/>
<trip id="317" depart="64.66799999999999" fromJunction="3way_21" toJunction="4way_40"/>
<trip id="318" depart="64.872" fromJunction="3way_20" toJunction="3way_21"/>
<trip id="319" depart="65.076" fromJunction="4way_37" toJunction="4way_10"/>
<trip id="320" depart="65.28" fromJunction="3way_5" toJunction="4way_32"/>
<trip id="321" depart="65.484" fromJunction="4way_16" toJunction="4way_22"/>
<trip id="322" depart="65.688" fromJunction="3way_27" toJunction="3way_47"/>
<trip id="323" depart="65.892" fromJunction="3way_3" toJunction="4way_32"/>
<trip id="324" depart="66.09599999999999" fromJunction="3way_13" toJunction="4way_15"/>
<trip id="325" depart="66.3" fromJunction="4way_40" toJunction="4way_8"/>
<trip id="326" depart="66.50399999999999" fromJunction="4way_32" toJunction="3way_7"/>
<trip id="327" depart="66.708" fromJunction="3way_45" toJunction="3way_13"/>
<trip id="328" depart="66.91199999999999" fromJunction="3way_21" toJunction="3way_14"/>
<trip id="329" depart="67.116" fromJunction="3way_35" toJunction="4way_10"/>
<trip id="330" depart="67.32" fromJunction="4way_30" toJunction="4way_24"/>
<trip id="331" depart="67.524" fromJunction="3way_7" toJunction="3way_21"/>
<trip id="332" depart="67.728" fromJunction="3way_4" toJunction="4way_23"/>
<trip id="333" depart="67.932" fromJunction="4way_37" toJunction="4way_25"/>
<trip id="334" depart="68.136" fromJunction="4way_36" toJunction="4way_24"/>
<trip id="335" depart="68.33999999999999" fromJunction="3way_14" toJunction="3way_5"/>
<trip id="336" depart="68.544" fromJunction="3way_43" toJunction="3way_14"/>
<trip id="337" depart="68.74799999999999" fromJunction="4way_31" toJunction="3way_2"/>
<trip id="338" depart="68.952" fromJunction="4way_23" toJunction="3way_5"/>
<trip id="339" depart="69.15599999999999" fromJunction="4way_30" toJunction="4way_17"/>
<trip id="340" depart="69.36" fromJunction="3way_5" toJunction="4way_33"/>
<trip id="341" depart="69.564" fromJunction="3way_2" toJunction="4way_39"/>
<trip id="342" depart="69.768" fromJunction="3way_14" toJunction="4way_36"/>
<trip id="343" depart="69.972" fromJunction="3way_28" toJunction="4way_29"/>
<trip id="344" depart="70.176" fromJunction="3way_1" toJunction="3way_34"/>
<trip id="345" depart="70.38" fromJunction="4way_25" toJunction="4way_29"/>
<trip id="346" depart="70.58399999999999" fromJunction="3way_47" toJunction="3way_28"/>
<trip id="347" depart="70.788" fromJunction="3way_5" toJunction="3way_41"/>
<trip id="348" depart="70.99199999999999" fromJunction="3way_3" toJunction="3way_46"/>
<trip id="349" depart="71.196" fromJunction="4way_32" toJunction="3way_3"/>
<trip id="350" depart="71.39999999999999" fromJunction="4way_9" toJunction="3way_27"/>
<trip id="351" depart="71.604" fromJunction="4way_8" toJunction="4way_38"/>
<trip id="352" depart="71.80799999999999" fromJunction="3way_34" toJunction="3way_20"/>
<trip id="353" depart="72.012" fromJunction="4way_29" toJunction="3way_7"/>
<trip id="354" depart="72.216" fromJunction="4way_11" toJunction="3way_35"/>
<trip id="355" depart="72.42" fromJunction="4way_19" toJunction="4way_31"/>
<trip id="356" depart="72.624" fromJunction="4way_12" toJunction="3way_2"/>
<trip id="357" depart="72.82799999999999" fromJunction="4way_39" toJunction="3way_21"/>
<trip id="358" depart="73.032" fromJunction="4way_40" toJunction="4way_17"/>
<trip id="359" depart="73.23599999999999" fromJunction="3way_28" toJunction="4way_38"/>
<trip id="360" depart="73.44" fromJunction="3way_28" toJunction="4way_22"/>
<trip id="361" depart="73.64399999999999" fromJunction="3way_46" toJunction="3way_28"/>
<trip id="362" depart="73.848" fromJunction="4way_10" toJunction="4way_22"/>
<trip id="363" depart="74.05199999999999" fromJunction="4way_29" toJunction="3way_45"/>
<trip id="364" depart="74.256" fromJunction="3way_27" toJunction="3way_13"/>
<trip id="365" depart="74.46" fromJunction="4way_33" toJunction="3way_3"/>
<trip id="366" depart="74.664" fromJunction="3way_34" toJunction="3way_1"/>
<trip id="367" depart="74.868" fromJunction="3way_4" toJunction="4way_23"/>