<?xml version="1.0" encoding="UTF-8"?>
<edges xmlns:xsi="http://www.w3.org/2001/XMLSchema-instance" xsi:noNamespaceSchemaLocation="http://sumo.dlr.de/xsd/edges_file.xsd">
    <edge from="3way_1" id="1_3way_1to3way_2" to="3way_2" spreadType="roadCenter" numLanes="1" priority="1"/>
    <edge from="3way_2" id="1_3way_2to3way_1" to="3way_1" spreadType="roadCenter" numLanes="1" priority="1"/>
    <edge from="3way_1" id="2_3way_1to3way_8" to="3way_8" spreadType="roadCenter" numLanes="1" priority="1" shape="100.00,0.00 0.00,0.00 0.00,-100.00"/>
    <edge from="3way_8" id="2_3way_8to3way_1" to="3way_1" spreadType="roadCenter" numLanes="1" priority="1" shape="0.00,-100.00 0.00,0.00 100.00,0.00"/>
    <edge from="3way_1" id="3_3way_1to4way_9" to="4way_9" spreadType="roadCenter" numLanes="1" priority="0"/>
    <edge from="4way_9" id="3_4way_9to3way_1" to="3way_1" spreadType="roadCenter" numLanes="1" priority="0"/>
    <edge from="3way_15" id="4_3way_15to3way_23" to="3way_23" spreadType="roadCenter" numLanes="1" priority="1"/>
    <edge from="3way_23" id="4_3way_23to3way_15" to="3way_15" spreadType="roadCenter" numLanes="1" priority="1"/>
    <edge from="3way_6" id="5_3way_6to3way_15" to="3way_15" spreadType="roadCenter" numLanes="1" priority="1" shape="600.00,0.00 700.00,0.00 700.00,-100.00"/>
    <edge from="3way_15" id="5_3way_15to3way_6" to="3way_6" spreadType="roadCenter" numLanes="1" priority="1" shape="700.00,-100.00 700.00,0.00 600.00,0.00"/>
    <edge from="3way_15" id="6_3way_15to4way_14" to="4way_14" spreadType="roadCenter" numLanes="1" priority="0"/>
    <edge from="4way_14" id="6_4way_14to3way_15" to="3way_15" spreadType="roadCenter" numLanes="1" priority="0"/>
    <edge from="3way_16" id="7_3way_16to3way_24" to="3way_24" spreadType="roadCenter" numLanes="1" priority="1"/>
    <edge from="3way_24" id="7_3way_24to3way_16" to="3way_16" spreadType="roadCenter" numLanes="1" priority="1"/>
    <edge from="3way_16" id="8_3way_16to3way_8" to="3way_8" spreadType="roadCenter" numLanes="1" priority="1"/>
    <edge from="3way_8" id="8_3way_8to3way_16" to="3way_16" spreadType="roadCenter" numLanes="1" priority="1"/>
    <edge from="3way_16" id="9_3way_16to4way_17" to="4way_17" spreadType="roadCenter" numLanes="1" priority="0"/>
    <edge from="4way_17" id="9_4way_17to3way_16" to="3way_16" spreadType="roadCenter" numLanes="1" priority="0"/>
    <edge from="3way_2" id="10_3way_2to3way_3" to="3way_3" spreadType="roadCenter" numLanes="1" priority="1"/>
    <edge from="3way_3" id="10_3way_3to3way_2" to="3way_2" spreadType="roadCenter" numLanes="1" priority="1"/>
    <edge from="3way_2" id="11_3way_2to4way_10" to="4way_10" spreadType="roadCenter" numLanes="1" priority="0"/>
    <edge from="4way_10" id="11_4way_10to3way_2" to="3way_2" spreadType="roadCenter" numLanes="1" priority="0"/>
    <edge from="3way_23" id="12_3way_23to3way_31" to="3way_31" spreadType="roadCenter" numLanes="1" priority="1"/>
    <edge from="3way_31" id="12_3way_31to3way_23" to="3way_23" spreadType="roadCenter" numLanes="1" priority="1"/>
    <edge from="3way_23" id="13_3way_23to4way_22" to="4way_22" spreadType="roadCenter" numLanes="1" priority="0"/>
    <edge from="4way_22" id="13_4way_22to3way_23" to="3way_23" spreadType="roadCenter" numLanes="1" priority="0"/>
    <edge from="3way_24" id="14_3way_24to3way_32" to="3way_32" spreadType="roadCenter" numLanes="1" priority="1"/>
    <edge from="3way_32" id="14_3way_32to3way_24" to="3way_24" spreadType="roadCenter" numLanes="1" priority="1"/>
    <edge from="3way_24" id="15_3way_24to4way_25" to="4way_25" spreadType="roadCenter" numLanes="1" priority="0"/>
    <edge from="4way_25" id="15_4way_25to3way_24" to="3way_24" spreadType="roadCenter" numLanes="1" priority="0"/>
    <edge from="3way_3" id="16_3way_3to3way_4" to="3way_4" spreadType="roadCenter" numLanes="1" priority="1"/>
    <edge from="3way_4" id="16_3way_4to3way_3" to="3way_3" spreadType="roadCenter" numLanes="1" priority="1"/>
    <edge from="3way_3" id="17_3way_3to4way_11" to="4way_11" spreadType="roadCenter" numLanes="1" priority="0"/>
    <edge from="4way_11" id="17_4way_11to3way_3" to="3way_3" spreadType="roadCenter" numLanes="1" priority="0"/>
    <edge from="3way_31" id="18_3way_31to3way_39" to="3way_39" spreadType="roadCenter" numLanes="1" priority="1"/>
    <edge from="3way_39" id="18_3way_39to3way_31" to="3way_31" spreadType="roadCenter" numLanes="1" priority="1"/>
    <edge from="3way_31" id="19_3way_31to4way_30" to="4way_30" spreadType="roadCenter" numLanes="1" priority="0"/>
    <edge from="4way_30" id="19_4way_30to3way_31" to="3way_31" spreadType="roadCenter" numLanes="1" priority="0"/>
    <edge from="3way_32" id="20_3way_32to3way_40" to="3way_40" spreadType="roadCenter" numLanes="1" priority="1"/>
    <edge from="3way_40" id="20_3way_40to3way_32" to="3way_32" spreadType="roadCenter" numLanes="1" priority="1"/>
    <edge from="3way_32" id="21_3way_32to4way_33" to="4way_33" spreadType="roadCenter" numLanes="1" priority="0"/>
    <edge from="4way_33" id="21_4way_33to3way_32" to="3way_32" spreadType="roadCenter" numLanes="1" priority="0"/>
    <edge from="3way_39" id="22_3way_39to3way_47" to="3way_47" spreadType="roadCenter" numLanes="1" priority="1"/>
    <edge from="3way_47" id="22_3way_47to3way_39" to="3way_39" spreadType="roadCenter" numLanes="1" priority="1"/>
    <edge from="3way_39" id="23_3way_39to4way_38" to="4way_38" spreadType="roadCenter" numLanes="1" priority="0"/>
    <edge from="4way_38" id="23_4way_38to3way_39" to="3way_39" spreadType="roadCenter" numLanes="1" priority="0"/>
    <edge from="3way_4" id="24_3way_4to3way_5" to="3way_5" spreadType="roadCenter" numLanes="1" priority="1"/>
    <edge from="3way_5" id="24_3way_5to3way_4" to="3way_4" spreadType="roadCenter" numLanes="1" priority="1"/>
    <edge from="3way_4" id="25_3way_4to4way_12" to="4way_12" spreadType="roadCenter" numLanes="1" priority="0"/>
    <edge from="4way_12" id="25_4way_12to3way_4" to="3way_4" spreadType="roadCenter" numLanes="1" priority="0"/>
    <edge from="3way_40" id="26_3way_40to3way_48" to="3way_48" spreadType="roadCenter" numLanes="1" priority="1"/>
    <edge from="3way_48" id="26_3way_48to3way_40" to="3way_40" spreadType="roadCenter" numLanes="1" priority="1"/>
    <edge from="3way_40" id="27_3way_40to4way_41" to="4way_41" spreadType="roadCenter" numLanes="1" priority="0"/>
    <edge from="4way_41" id="27_4way_41to3way_40" to="3way_40" spreadType="roadCenter" numLanes="1" priority="0"/>
    <edge from="3way_47" id="28_3way_47to3way_55" to="3way_55" spreadType="roadCenter" numLanes="1" priority="1"/>
    <edge from="3way_55" id="28_3way_55to3way_47" to="3way_47" spreadType="roadCenter" numLanes="1" priority="1"/>
    <edge from="3way_47" id="29_3way_47to4way_46" to="4way_46" spreadType="roadCenter" numLanes="1" priority="0"/>
    <edge from="4way_46" id="29_4way_46to3way_47" to="3way_47" spreadType="roadCenter" numLanes="1" priority="0"/>
    <edge from="3way_57" id="30_3way_57to3way_48" to="3way_48" spreadType="roadCenter" numLanes="1" priority="1" shape="100.00,-700.00 0.00,-700.00 0.00,-600.00"/>
    <edge from="3way_48" id="30_3way_48to3way_57" to="3way_57" spreadType="roadCenter" numLanes="1" priority="1" shape="0.00,-600.00 0.00,-700.00 100.00,-700.00"/>
    <edge from="3way_48" id="31_3way_48to4way_49" to="4way_49" spreadType="roadCenter" numLanes="1" priority="0"/>
    <edge from="4way_49" id="31_4way_49to3way_48" to="3way_48" spreadType="roadCenter" numLanes="1" priority="0"/>
    <edge from="3way_5" id="32_3way_5to3way_6" to="3way_6" spreadType="roadCenter" numLanes="1" priority="1"/>
    <edge from="3way_6" id="32_3way_6to3way_5" to="3way_5" spreadType="roadCenter" numLanes="1" priority="1"/>
    <edge from="3way_5" id="33_3way_5to4way_13" to="4way_13" spreadType="roadCenter" numLanes="1" priority="0"/>
    <edge from="4way_13" id="33_4way_13to3way_5" to="3way_5" spreadType="roadCenter" numLanes="1" priority="0"/>
    <edge from="3way_55" id="34_3way_55to3way_62" to="3way_62" spreadType="roadCenter" numLanes="1" priority="1" shape="700.00,-600.00 700.00,-700.00 600.00,-700.00"/>
    <edge from="3way_62" id="34_3way_62to3way_55" to="3way_55" spreadType="roadCenter" numLanes="1" priority="1" shape="600.00,-700.00 700.00,-700.00 700.00,-600.00"/>
    <edge from="3way_55" id="35_3way_55to4way_54" to="4way_54" spreadType="roadCenter" numLanes="1" priority="0"/>
    <edge from="4way_54" id="35_4way_54to3way_55" to="3way_55" spreadType="roadCenter" numLanes="1" priority="0"/>
    <edge from="3way_57" id="36_3way_57to3way_58" to="3way_58" spreadType="roadCenter" numLanes="1" priority="1"/>
    <edge from="3way_58" id="36_3way_58to3way_57" to="3way_57" spreadType="roadCenter" numLanes="1" priority="1"/>
    <edge from="3way_57" id="37_3way_57to4way_49" to="4way_49" spreadType="roadCenter" numLanes="1" priority="0"/>
    <edge from="4way_49" id="37_4way_49to3way_57" to="3way_57" spreadType="roadCenter" numLanes="1" priority="0"/>
    <edge from="3way_58" id="38_3way_58to3way_59" to="3way_59" spreadType="roadCenter" numLanes="1" priority="1"/>
    <edge from="3way_59" id="38_3way_59to3way_58" to="3way_58" spreadType="roadCenter" numLanes="1" priority="1"/>
    <edge from="3way_58" id="39_3way_58to4way_50" to="4way_50" spreadType="roadCenter" numLanes="1" priority="0"/>
    <edge from="4way_50" id="39_4way_50to3way_58" to="3way_58" spreadType="roadCenter" numLanes="1" priority="0"/>
    <edge from="3way_59" id="40_3way_59to3way_60" to="3way_60" spreadType="roadCenter" numLanes="1" priority="1"/>
    <edge from="3way_60" id="40_3way_60to3way_59" to="3way_59" spreadType="roadCenter" numLanes="1" priority="1"/>
    <edge from="3way_59" id="41_3way_59to4way_51" to="4way_51" spreadType="roadCenter" numLanes="1" priority="0"/>
    <edge from="4way_51" id="41_4way_51to3way_59" to="3way_59" spreadType="roadCenter" numLanes="1" priority="0"/>
    <edge from="3way_6" id="42_3way_6to4way_14" to="4way_14" spreadType="roadCenter" numLanes="1" priority="0"/>
    <edge from="4way_14" id="42_4way_14to3way_6" to="3way_6" spreadType="roadCenter" numLanes="1" priority="0"/>
    <edge from="3way_60" id="43_3way_60to3way_61" to="3way_61" spreadType="roadCenter" numLanes="1" priority="1"/>
    <edge from="3way_61" id="43_3way_61to3way_60" to="3way_60" spreadType="roadCenter" numLanes="1" priority="1"/>
    <edge from="3way_60" id="44_3way_60to4way_52" to="4way_52" spreadType="roadCenter" numLanes="1" priority="0"/>
    <edge from="4way_52" id="44_4way_52to3way_60" to="3way_60" spreadType="roadCenter" numLanes="1" priority="0"/>
    <edge from="3way_61" id="45_3way_61to3way_62" to="3way_62" spreadType="roadCenter" numLanes="1" priority="1"/>
    <edge from="3way_62" id="45_3way_62to3way_61" to="3way_61" spreadType="roadCenter" numLanes="1" priority="1"/>
    <edge from="3way_61" id="46_3way_61to4way_53" to="4way_53" spreadType="roadCenter" numLanes="1" priority="0"/>
    <edge from="4way_53" id="46_4way_53to3way_61" to="3way_61" spreadType="roadCenter" numLanes="1" priority="0"/>
    <edge from="3way_62" id="47_3way_62to4way_54" to="4way_54" spreadType="roadCenter" numLanes="1" priority="0"/>
    <edge from="4way_54" id="47_4way_54to3way_62" to="3way_62" spreadType="roadCenter" numLanes="1" priority="0"/>
    <edge from="3way_8" id="48_3way_8to4way_9" to="4way_9" spreadType="roadCenter" numLanes="1" priority="0"/>
    <edge from="4way_9" id="48_4way_9to3way_8" to="3way_8" spreadType="roadCenter" numLanes="1" priority="0"/>
    <edge from="4way_10" id="49_4way_10to4way_11" to="4way_11" spreadType="roadCenter" numLanes="1" priority="1"/>
    <edge from="4way_11" id="49_4way_11to4way_10" to="4way_10" spreadType="roadCenter" numLanes="1" priority="1"/>
    <edge from="4way_10" id="50_4way_10to4way_18" to="4way_18" spreadType="roadCenter" numLanes="1" priority="1"/>
    <edge from="4way_18" id="50_4way_18to4way_10" to="4way_10" spreadType="roadCenter" numLanes="1" priority="1"/>
    <edge from="4way_10" id="51_4way_10to4way_9" to="4way_9" spreadType="roadCenter" numLanes="1" priority="1"/>
    <edge from="4way_9" id="51_4way_9to4way_10" to="4way_10" spreadType="roadCenter" numLanes="1" priority="1"/>
    <edge from="4way_11" id="52_4way_11to4way_12" to="4way_12" spreadType="roadCenter" numLanes="1" priority="1"/>
    <edge from="4way_12" id="52_4way_12to4way_11" to="4way_11" spreadType="roadCenter" numLanes="1" priority="1"/>
    <edge from="4way_11" id="53_4way_11to4way_19" to="4way_19" spreadType="roadCenter" numLanes="1" priority="1"/>
    <edge from="4way_19" id="53_4way_19to4way_11" to="4way_11" spreadType="roadCenter" numLanes="1" priority="1"/>
    <edge from="4way_12" id="54_4way_12to4way_13" to="4way_13" spreadType="roadCenter" numLanes="1" priority="1"/>
    <edge from="4way_13" id="54_4way_13to4way_12" to="4way_12" spreadType="roadCenter" numLanes="1" priority="1"/>
    <edge from="4way_12" id="55_4way_12to4way_20" to="4way_20" spreadType="roadCenter" numLanes="1" priority="1"/>
    <edge from="4way_20" id="55_4way_20to4way_12" to="4way_12" spreadType="roadCenter" numLanes="1" priority="1"/>
    <edge from="4way_13" id="56_4way_13to4way_14" to="4way_14" spreadType="roadCenter" numLanes="1" priority="1"/>
    <edge from="4way_14" id="56_4way_14to4way_13" to="4way_13" spreadType="roadCenter" numLanes="1" priority="1"/>
    <edge from="4way_13" id="57_4way_13to4way_21" to="4way_21" spreadType="roadCenter" numLanes="1" priority="1"/>
    <edge from="4way_21" id="57_4way_21to4way_13" to="4way_13" spreadType="roadCenter" numLanes="1" priority="1"/>
    <edge from="4way_14" id="58_4way_14to4way_22" to="4way_22" spreadType="roadCenter" numLanes="1" priority="1"/>
    <edge from="4way_22" id="58_4way_22to4way_14" to="4way_14" spreadType="roadCenter" numLanes="1" priority="1"/>
    <edge from="4way_17" id="59_4way_17to4way_18" to="4way_18" spreadType="roadCenter" numLanes="1" priority="1"/>
    <edge from="4way_18" id="59_4way_18to4way_17" to="4way_17" spreadType="roadCenter" numLanes="1" priority="1"/>
    <edge from="4way_17" id="60_4way_17to4way_25" to="4way_25" spreadType="roadCenter" numLanes="1" priority="1"/>
    <edge from="4way_25" id="60_4way_25to4way_17" to="4way_17" spreadType="roadCenter" numLanes="1" priority="1"/>
    <edge from="4way_17" id="61_4way_17to4way_9" to="4way_9" spreadType="roadCenter" numLanes="1" priority="1"/>
    <edge from="4way_9" id="61_4way_9to4way_17" to="4way_17" spreadType="roadCenter" numLanes="1" priority="1"/>
    <edge from="4way_18" id="62_4way_18to4way_19" to="4way_19" spreadType="roadCenter" numLanes="1" priority="1"/>
    <edge from="4way_19" id="62_4way_19to4way_18" to="4way_18" spreadType="roadCenter" numLanes="1" priority="1"/>
    <edge from="4way_18" id="63_4way_18to4way_26" to="4way_26" spreadType="roadCenter" numLanes="1" priority="1"/>
    <edge from="4way_26" id="63_4way_26to4way_18" to="4way_18" spreadType="roadCenter" numLanes="1" priority="1"/>
    <edge from="4way_19" id="64_4way_19to4way_20" to="4way_20" spreadType="roadCenter" numLanes="1" priority="1"/>
    <edge from="4way_20" id="64_4way_20to4way_19" to="4way_19" spreadType="roadCenter" numLanes="1" priority="1"/>
    <edge from="4way_19" id="65_4way_19to4way_27" to="4way_27" spreadType="roadCenter" numLanes="1" priority="1"/>
    <edge from="4way_27" id="65_4way_27to4way_19" to="4way_19" spreadType="roadCenter" numLanes="1" priority="1"/>
    <edge from="4way_20" id="66_4way_20to4way_21" to="4way_21" spreadType="roadCenter" numLanes="1" priority="1"/>
    <edge from="4way_21" id="66_4way_21to4way_20" to="4way_20" spreadType="roadCenter" numLanes="1" priority="1"/>
    <edge from="4way_20" id="67_4way_20to4way_28" to="4way_28" spreadType="roadCenter" numLanes="1" priority="1"/>
    <edge from="4way_28" id="67_4way_28to4way_20" to="4way_20" spreadType="roadCenter" numLanes="1" priority="1"/>
    <edge from="4way_21" id="68_4way_21to4way_22" to="4way_22" spreadType="roadCenter" numLanes="1" priority="1"/>
    <edge from="4way_22" id="68_4way_22to4way_21" to="4way_21" spreadType="roadCenter" numLanes="1" priority="1"/>
    <edge from="4way_21" id="69_4way_21to4way_29" to="4way_29" spreadType="roadCenter" numLanes="1" priority="1"/>
    <edge from="4way_29" id="69_4way_29to4way_21" to="4way_21" spreadType="roadCenter" numLanes="1" priority="1"/>
    <edge from="4way_22" id="70_4way_22to4way_30" to="4way_30" spreadType="roadCenter" numLanes="1" priority="1"/>
    <edge from="4way_30" id="70_4way_30to4way_22" to="4way_22" spreadType="roadCenter" numLanes="1" priority="1"/>
    <edge from="4way_25" id="71_4way_25to4way_26" to="4way_26" spreadType="roadCenter" numLanes="1" priority="1"/>
    <edge from="4way_26" id="71_4way_26to4way_25" to="4way_25" spreadType="roadCenter" numLanes="1" priority="1"/>
    <edge from="4way_25" id="72_4way_25to4way_33" to="4way_33" spreadType="roadCenter" numLanes="1" priority="1"/>
    <edge from="4way_33" id="72_4way_33to4way_25" to="4way_25" spreadType="roadCenter" numLanes="1" priority="1"/>
    <edge from="4way_26" id="73_4way_26to4way_27" to="4way_27" spreadType="roadCenter" numLanes="1" priority="1"/>
    <edge from="4way_27" id="73_4way_27to4way_26" to="4way_26" spreadType="roadCenter" numLanes="1" priority="1"/>
    <edge from="4way_26" id="74_4way_26to4way_34" to="4way_34" spreadType="roadCenter" numLanes="1" priority="1"/>
    <edge from="4way_34" id="74_4way_34to4way_26" to="4way_26" spreadType="roadCenter" numLanes="1" priority="1"/>
    <edge from="4way_27" id="75_4way_27to4way_28" to="4way_28" spreadType="roadCenter" numLanes="1" priority="1"/>
    <edge from="4way_28" id="75_4way_28to4way_27" to="4way_27" spreadType="roadCenter" numLanes="1" priority="1"/>
    <edge from="4way_27" id="76_4way_27to4way_35" to="4way_35" spreadType="roadCenter" numLanes="1" priority="1"/>
    <edge from="4way_35" id="76_4way_35to4way_27" to="4way_27" spreadType="roadCenter" numLanes="1" priority="1"/>
    <edge from="4way_28" id="77_4way_28to4way_29" to="4way_29" spreadType="roadCenter" numLanes="1" priority="1"/>
    <edge from="4way_29" id="77_4way_29to4way_28" to="4way_28" spreadType="roadCenter" numLanes="1" priority="1"/>
    <edge from="4way_28" id="78_4way_28to4way_36" to="4way_36" spreadType="roadCenter" numLanes="1" priority="1"/>
    <edge from="4way_36" id="78_4way_36to4way_28" to="4way_28" spreadType="roadCenter" numLanes="1" priority="1"/>
    <edge from="4way_29" id="79_4way_29to4way_30" to="4way_30" spreadType="roadCenter" numLanes="1" priority="1"/>
    <edge from="4way_30" id="79_4way_30to4way_29" to="4way_29" spreadType="roadCenter" numLanes="1" priority="1"/>
    <edge from="4way_29" id="80_4way_29to4way_37" to="4way_37" spreadType="roadCenter" numLanes="1" priority="1"/>
    <edge from="4way_37" id="80_4way_37to4way_29" to="4way_29" spreadType="roadCenter" numLanes="1" priority="1"/>
    <edge from="4way_30" id="81_4way_30to4way_38" to="4way_38" spreadType="roadCenter" numLanes="1" priority="1"/>
    <edge from="4way_38" id="81_4way_38to4way_30" to="4way_30" spreadType="roadCenter" numLanes="1" priority="1"/>
    <edge from="4way_33" id="82_4way_33to4way_34" to="4way_34" spreadType="roadCenter" numLanes="1" priority="1"/>
    <edge from="4way_34" id="82_4way_34to4way_33" to="4way_33" spreadType="roadCenter" numLanes="1" priority="1"/>
    <edge from="4way_33" id="83_4way_33to4way_41" to="4way_41" spreadType="roadCenter" numLanes="1" priority="1"/>
    <edge from="4way_41" id="83_4way_41to4way_33" to="4way_33" spreadType="roadCenter" numLanes="1" priority="1"/>
    <edge from="4way_34" id="84_4way_34to4way_35" to="4way_35" spreadType="roadCenter" numLanes="1" priority="1"/>
    <edge from="4way_35" id="84_4way_35to4way_34" to="4way_34" spreadType="roadCenter" numLanes="1" priority="1"/>
    <edge from="4way_34" id="85_4way_34to4way_42" to="4way_42" spreadType="roadCenter" numLanes="1" priority="1"/>
    <edge from="4way_42" id="85_4way_42to4way_34" to="4way_34" spreadType="roadCenter" numLanes="1" priority="1"/>
    <edge from="4way_35" id="86_4way_35to4way_36" to="4way_36" spreadType="roadCenter" numLanes="1" priority="1"/>
    <edge from="4way_36" id="86_4way_36to4way_35" to="4way_35" spreadType="roadCenter" numLanes="1" priority="1"/>
    <edge from="4way_35" id="87_4way_35to4way_43" to="4way_43" spreadType="roadCenter" numLanes="1" priority="1"/>
    <edge from="4way_43" id="87_4way_43to4way_35" to="4way_35" spreadType="roadCenter" numLanes="1" priority="1"/>
    <edge from="4way_36" id="88_4way_36to4way_37" to="4way_37" spreadType="roadCenter" numLanes="1" priority="1"/>
    <edge from="4way_37" id="88_4way_37to4way_36" to="4way_36" spreadType="roadCenter" numLanes="1" priority="1"/>
    <edge from="4way_36" id="89_4way_36to4way_44" to="4way_44" spreadType="roadCenter" numLanes="1" priority="1"/>
    <edge from="4way_44" id="89_4way_44to4way_36" to="4way_36" spreadType="roadCenter" numLanes="1" priority="1"/>
    <edge from="4way_37" id="90_4way_37to4way_38" to="4way_38" spreadType="roadCenter" numLanes="1" priority="1"/>
    <edge from="4way_38" id="90_4way_38to4way_37" to="4way_37" spreadType="roadCenter" numLanes="1" priority="1"/>
    <edge from="4way_37" id="91_4way_37to4way_45" to="4way_45" spreadType="roadCenter" numLanes="1" priority="1"/>
    <edge from="4way_45" id="91_4way_45to4way_37" to="4way_37" spreadType="roadCenter" numLanes="1" priority="1"/>
    <edge from="4way_38" id="92_4way_38to4way_46" to="4way_46" spreadType="roadCenter" numLanes="1" priority="1"/>
    <edge from="4way_46" id="92_4way_46to4way_38" to="4way_38" spreadType="roadCenter" numLanes="1" priority="1"/>
    <edge from="4way_41" id="93_4way_41to4way_42" to="4way_42" spreadType="roadCenter" numLanes="1" priority="1"/>
    <edge from="4way_42" id="93_4way_42to4way_41" to="4way_41" spreadType="roadCenter" numLanes="1" priority="1"/>
    <edge from="4way_41" id="94_4way_41to4way_49" to="4way_49" spreadType="roadCenter" numLanes="1" priority="1"/>
    <edge from="4way_49" id="94_4way_49to4way_41" to="4way_41" spreadType="roadCenter" numLanes="1" priority="1"/>
    <edge from="4way_42" id="95_4way_42to4way_43" to="4way_43" spreadType="roadCenter" numLanes="1" priority="1"/>
    <edge from="4way_43" id="95_4way_43to4way_42" to="4way_42" spreadType="roadCenter" numLanes="1" priority="1"/>
    <edge from="4way_42" id="96_4way_42to4way_50" to="4way_50" spreadType="roadCenter" numLanes="1" priority="1"/>
    <edge from="4way_50" id="96_4way_50to4way_42" to="4way_42" spreadType="roadCenter" numLanes="1" priority="1"/>
    <edge from="4way_43" id="97_4way_43to4way_44" to="4way_44" spreadType="roadCenter" numLanes="1" priority="1"/>
    <edge from="4way_44" id="97_4way_44to4way_43" to="4way_43" spreadType="roadCenter" numLanes="1" priority="1"/>
    <edge from="4way_43" id="98_4way_43to4way_51" to="4way_51" spreadType="roadCenter" numLanes="1" priority="1"/>
    <edge from="4way_51" id="98_4way_51to4way_43" to="4way_43" spreadType="roadCenter" numLanes="1" priority="1"/>
    <edge from="4way_44" id="99_4way_44to4way_45" to="4way_45" spreadType="roadCenter" numLanes="1" priority="1"/>
    <edge from="4way_45" id="99_4way_45to4way_44" to="4way_44" spreadType="roadCenter" numLanes="1" priority="1"/>
    <edge from="4way_44" id="100_4way_44to4way_52" to="4way_52" spreadType="roadCenter" numLanes="1" priority="1"/>
    <edge from="4way_52" id="100_4way_52to4way_44" to="4way_44" spreadType="roadCenter" numLanes="1" priority="1"/>
    <edge from="4way_45" id="101_4way_45to4way_46" to="4way_46" spreadType="roadCenter" numLanes="1" priority="1"/>
    <edge from="4way_46" id="101_4way_46to4way_45" to="4way_45" spreadType="roadCenter" numLanes="1" priority="1"/>
    <edge from="4way_45" id="102_4way_45to4way_53" to="4way_53" spreadType="roadCenter" numLanes="1" priority="1"/>
    <edge from="4way_53" id="102_4way_53to4way_45" to="4way_45" spreadType="roadCenter" numLanes="1" priority="1"/>
    <edge from="4way_46" id="103_4way_46to4way_54" to="4way_54" spreadType="roadCenter" numLanes="1" priority="1"/>
    <edge from="4way_54" id="103_4way_54to4way_46" to="4way_46" spreadType="roadCenter" numLanes="1" priority="1"/>
    <edge from="4way_49" id="104_4way_49to4way_50" to="4way_50" spreadType="roadCenter" numLanes="1" priority="1"/>
    <edge from="4way_50" id="104_4way_50to4way_49" to="4way_49" spreadType="roadCenter" numLanes="1" priority="1"/>
    <edge from="4way_50" id="105_4way_50to4way_51" to="4way_51" spreadType="roadCenter" numLanes="1" priority="1"/>
    <edge from="4way_51" id="105_4way_51to4way_50" to="4way_50" spreadType="roadCenter" numLanes="1" priority="1"/>
    <edge from="4way_51" id="106_4way_51to4way_52" to="4way_52" spreadType="roadCenter" numLanes="1" priority="1"/>
    <edge from="4way_52" id="106_4way_52to4way_51" to="4way_51" spreadType="roadCenter" numLanes="1" priority="1"/>
    <edge from="4way_52" id="107_4way_52to4way_53" to="4way_53" spreadType="roadCenter" numLanes="1" priority="1"/>
    <edge from="4way_53" id="107_4way_53to4way_52" to="4way_52" spreadType="roadCenter" numLanes="1" priority="1"/>
    <edge from="4way_53" id="108_4way_53to4way_54" to="4way_54" spreadType="roadCenter" numLanes="1" priority="1"/>
    <edge from="4way_54" id="108_4way_54to4way_53" to="4way_53" spreadType="roadCenter" numLanes="1" priority="1"/>
</edges>
