<routes xmlns:xsi="http://www.w3.org/2001/XMLSchema-instance" xsi:noNamespaceSchemaLocation="http://sumo.dlr.de/xsd/routes_file.xsd">
<trip id="0" depart="0.0" fromJunction="4way_55" toJunction="4way_53"/>
<trip id="1" depart="0.6666" fromJunction="4way_53" toJunction="4way_24"/>
<trip id="2" depart="1.3332" fromJunction="4way_74" toJunction="4way_12"/>
<trip id="3" depart="1.9998" fromJunction="4way_67" toJunction="4way_32"/>
<trip id="4" depart="2.6664" fromJunction="4way_51" toJunction="4way_58"/>
<trip id="5" depart="3.3329999999999997" fromJunction="4way_33" toJunction="4way_56"/>
<trip id="6" depart="3.9996" fromJunction="4way_18" toJunction="4way_73"/>
<trip id="7" depart="4.6662" fromJunction="3way_19" toJunction="3way_7"/>
<trip id="8" depart="5.3328" fromJunction="4way_86" toJunction="3way_2"/>
<trip id="9" depart="5.9994" fromJunction="4way_47" toJunction="4way_36"/>
<trip id="10" depart="6.6659999999999995" fromJunction="4way_56" toJunction="4way_68"/>
<trip id="11" depart="7.332599999999999" fromJunction="4way_36" toJunction="4way_52"/>
<trip id="12" depart="7.9992" fromJunction="4way_64" toJunction="3way_49"/>
<trip id="13" depart="8.665799999999999" fromJunction="4way_38" toJunction="3way_69"/>
<trip id="14" depart="9.3324" fromJunction="4way_81" toJunction="4way_33"/>
<trip id="15" depart="9.998999999999999" fromJunction="4way_36" toJunction="3way_70"/>
<trip id="16" depart="10.6656" fromJunction="4way_73" toJunction="4way_42"/>
<trip id="17" depart="11.3322" fromJunction="4way_44" toJunction="3way_2"/>
<trip id="18" depart="11.9988" fromJunction="4way_44" toJunction="4way_34"/>
<trip id="19" depart="12.6654" fromJunction="4way_25" toJunction="4way_38"/>
<trip id="20" depart="13.331999999999999" fromJunction="4way_22" toJunction="4way_31"/>
<trip id="21" depart="13.9986" fromJunction="3way_6" toJunction="4way_35"/>
<trip id="22" depart="14.665199999999999" fromJunction="3way_59" toJunction="3way_94"/>
<trip id="23" depart="15.3318" fromJunction="4way_31" toJunction="3way_20"/>
<trip id="24" depart="15.9984" fromJunction="4way_32" toJunction="4way_73"/>
<trip id="25" depart="16.665" fromJunction="3way_29" toJunction="4way_78"/>
<trip id="26" depart="17.331599999999998" fromJunction="3way_89" toJunction="3way_94"/>
<trip id="27" depart="17.9982" fromJunction="3way_80" toJunction="4way_74"/>
<trip id="28" depart="18.6648" fromJunction="3way_91" toJunction="4way_52"/>
<trip id="29" depart="19.3314" fromJunction="3way_39" toJunction="3way_89"/>
<trip id="30" depart="19.997999999999998" fromJunction="3way_69" toJunction="4way_84"/>
<trip id="31" depart="20.6646" fromJunction="4way_41" toJunction="3way_96"/>
<trip id="32" depart="21.3312" fromJunction="3way_29" toJunction="4way_76"/>
<trip id="33" depart="21.997799999999998" fromJunction="3way_29" toJunction="4way_17"/>
<trip id="34" depart="22.6644" fromJunction="4way_52" toJunction="4way_68"/>
<trip id="35" depart="23.331" fromJunction="4way_34" toJunction="4way_68"/>
<trip id="36" depart="23.9976" fromJunction="3way_4" toJunction="4way_75"/>
<trip id="37" depart="24.664199999999997" fromJunction="3way_49" toJunction="3way_50"/>
<trip id="38" depart="25.3308" fromJunction="3way_49" toJunction="3way_40"/>
<trip id="39" depart="25.9974" fromJunction="4way_81" toJunction="3way_20"/>
<trip id="40" depart="26.663999999999998" fromJunction="4way_35" toJunction="3way_7"/>
<trip id="41" depart="27.3306" fromJunction="3way_70" toJunction="4way_73"/>
<trip id="42" depart="27.9972" fromJunction="3way_29" toJunction="4way_33"/>
<trip id="43" depart="28.6638" fromJunction="4way_28" toJunction="4way_83"/>
<trip id="44" depart="29.330399999999997" fromJunction="4way_15" toJunction="3way_20"/>
<trip id="45" depart="29.997" fromJunction="4way_55" toJunction="3way_59"/>
<trip id="46" depart="30.6636" fromJunction="3way_97" toJunction="3way_50"/>
<trip id="47" depart="31.330199999999998" fromJunction="3way_2" toJunction="4way_14"/>
<trip id="48" depart="31.9968" fromJunction="3way_1" toJunction="4way_86"/>
<trip id="49" depart="32.663399999999996" fromJunction="3way_70" toJunction="4way_25"/>
<trip id="50" depart="33.33" fromJunction="4way_58" toJunction="4way_75"/>
<trip id="51" depart="33.9966" fromJunction="4way_83" toJunction="3way_91"/>
<trip id="52" depart="34.663199999999996" fromJunction="4way_73" toJunction="4way_14"/>
<trip id="53" depart="35.3298" fromJunction="4way_48" toJunction="3way_93"/>
<trip id="54" depart="35.9964" fromJunction="4way_27" toJunction="4way_32"/>
<trip id="55" depart="36.663" fromJunction="3way_40" toJunction="4way_45"/>
<trip id="56" depart="37.3296" fromJunction="4way_71" toJunction="4way_76"/>
<trip id="57" depart="37.9962" fromJunction="4way_83" toJunction="4way_57"/>
<trip id="58" depart="38.6628" fromJunction="4way_35" toJunction="4way_57"/>
<trip id="59" depart="39.3294" fromJunction="4way_13" toJunction="4way_65"/>
<trip id="60" depart="39.995999999999995" fromJunction="4way_64" toJunction="4way_48"/>
<trip id="61" depart="40.6626" fromJunction="4way_34" toJunction="4way_12"/>
<trip id="62" depart="41.3292" fromJunction="3way_40" toJunction="3way_2"/>
<trip id="63" depart="41.995799999999996" fromJunction="3way_50" toJunction="4way_84"/>
<trip id="64" depart="42.6624" fromJunction="4way_22" toJunction="4way_44"/>
<trip id="65" depart="43.329" fromJunction="3way_40" toJunction="3way_69"/>
<trip id="66" depart="43.995599999999996" fromJunction="4way_14" toJunction="4way_73"/>
<trip id="67" depart="44.6622" fromJunction="4way_74" toJunction="4way_83"/>
<trip id="68" depart="45.3288" fromJunction="4way_22" toJunction="4way_74"/>
<trip id="69" depart="45.9954" fromJunction="4way_41" toJunction="4way_77"/>
<trip id="70" depart="46.662" fromJunction="4way_67" toJunction="4way_22"/>
<trip id="71" depart="47.328599999999994" fromJunction="4way_45" toJunction="4way_66"/>
<trip id="72" depart="47.9952" fromJunction="4way_18" toJunction="3way_29"/>
<trip id="73" depart="48.6618" fromJunction="4way_88" toJunction="4way_55"/>
<trip id="74" depart="49.328399999999995" fromJunction="4way_47" toJunction="3way_79"/>
<trip id="75" depart="49.995" fromJunction="4way_44" toJunction="3way_89"/>
<trip id="76" depart="50.6616" fromJunction="4way_27" toJunction="3way_49"/>
<trip id="77" depart="51.328199999999995" fromJunction="4way_73" toJunction="4way_66"/>
<trip id="78" depart="51.9948" fromJunction="3way_7" toJunction="4way_81"/>
<trip id="79" depart="52.6614" fromJunction="4way_42" toJunction="4way_35"/>
<trip id="80" depart="53.327999999999996" fromJunction="4way_47" toJunction="4way_65"/>
<trip id="81" depart="53.9946" fromJunction="4way_37" toJunction="4way_68"/>
<trip id="82" depart="54.6612" fromJunction="4way_31" toJunction="3way_2"/>
<trip id="83" depart="55.327799999999996" fromJunction="3way_98" toJunction="4way_75"/>
<trip id="84" depart="55.9944" fromJunction="3way_6" toJunction="4way_33"/>
<trip id="85" depart="56.660999999999994" fromJunction="3way_2" toJunction="3way_95"/>
<trip id="86" depart="57.3276" fromJunction="3way_93" toJunction="4way_56"/>
<trip id="87" depart="57.9942" fromJunction="4way_28" toJunction="4way_21"/>
<trip id="88" depart="58.660799999999995" fromJunction="3way_4" toJunction="4way_45"/>
<trip id="89" depart="59.3274" fromJunction="4way_44" toJunction="3way_89"/>
<trip id="90" depart="59.994" fromJunction="3way_92" toJunction="4way_83"/>
<trip id="91" depart="60.660599999999995" fromJunction="4way_34" toJunction="4way_28"/>
<trip id="92" depart="61.3272" fromJunction="4way_14" toJunction="4way_43"/>
<trip id="93" depart="61.9938" fromJunction="3way_30" toJunction="4way_75"/>
<trip id="94" depart="62.660399999999996" fromJunction="3way_94" toJunction="4way_71"/>
<trip id="95" depart="63.327" fromJunction="4way_38" toJunction="3way_97"/>
<trip id="96" depart="63.9936" fromJunction="4way_82" toJunction="4way_75"/>
<trip id="97" depart="64.6602" fromJunction="3way_80" toJunction="3way_93"/>
<trip id="98" depart="65.32679999999999" fromJunction="4way_22" toJunction="3way_6"/>
<trip id="99" depart="65.9934" fromJunction="4way_35" toJunction="3way_30"/>
<trip id="100" depart="66.66" fromJunction="3way_97" toJunction="4way_51"/>
<trip id="101" depart="67.3266" fromJunction="3way_7" toJunction="3way_3"/>
<trip id="102" depart="67.9932" fromJunction="4way_42" toJunction="4way_25"/>
<trip id="103" depart="68.65979999999999" fromJunction="4way_77" toJunction="4way_43"/>
<trip id="104" depart="69.32639999999999" fromJunction="3way_94" toJunction="4way_88"/>
<trip id="105" depart="69.993" fromJunction="3way_70" toJunction="4way_84"/>
<trip id="106" depart="70.6596" fromJunction="4way_16" toJunction="3way_2"/>
<trip id="107" depart="71.3262" fromJunction="4way_51" toJunction="3way_20"/>
<trip id="108" depart="71.9928" fromJunction="4way_86" toJunction="4way_14"/>
<trip id="109" depart="72.65939999999999" fromJunction="4way_47" toJunction="4way_54"/>
<trip id="110" depart="73.326" fromJunction="4way_56" toJunction="3way_60"/>
<trip id="111" depart="73.9926" fromJunction="4way_48" toJunction="3way_97"/>
<trip id="112" depart="74.6592" fromJunction="3way_94" toJunction="4way_25"/>
<trip id="113" depart="75.3258" fromJunction="4way_75" toJunction="4way_38"/>
<trip id="114" depart="75.9924" fromJunction="3way_94" toJunction="3way_80"/>
<trip id="115" depart="76.65899999999999" fromJunction="3way_3" toJunction="4way_23"/>
<trip id="116" depart="77.3256" fromJunction="4way_12" toJunction="3way_95"/>
<trip id="117" depart="77.9922" fromJunction="4way_52" toJunction="4way_41"/>
<trip id="118" depart="78.6588" fromJunction="4way_14" toJunction="3way_60"/>
<trip id="119" depart="79.3254" fromJunction="3way_49" toJunction="4way_37"/>
<trip id="120" depart="79.99199999999999" fromJunction="3way_59" toJunction="4way_23"/>
<trip id="121" depart="80.65859999999999" fromJunction="4way_71" toJunction="4way_55"/>
<trip id="122" depart="81.3252" fromJunction="3way_97" toJunction="4way_73"/>
<trip id="123" depart="81.9918" fromJunction="4way_72" toJunction="3way_69"/>
<trip id="124" depart="82.6584" fromJunction="4way_38" toJunction="4way_31"/>
<trip id="125" depart="83.325" fromJunction="4way_85" toJunction="4way_26"/>
<trip id="126" depart="83.99159999999999" fromJunction="3way_19" toJunction="4way_77"/>
<trip id="127" depart="84.6582" fromJunction="4way_14" toJunction="4way_63"/>
<trip id="128" depart="85.3248" fromJunction="3way_40" toJunction="4way_58"/>
<trip id="129" depart="85.9914" fromJunction="3way_29" toJunction="3way_91"/>
<trip id="130" depart="86.658" fromJunction="4way_28" toJunction="3way_2"/>
<trip id="131" depart="87.32459999999999" fromJunction="4way_46" toJunction="4way_15"/>
<trip id="132" depart="87.99119999999999" fromJunction="4way_14" toJunction="3way_50"/>
<trip id="133" depart="88.6578" fromJunction="4way_72" toJunction="3way_7"/>
<trip id="134" depart="89.3244" fromJunction="4way_57" toJunction="4way_68"/>
<trip id="135" depart="89.991" fromJunction="4way_58" toJunction="4way_11"/>
<trip id="136" depart="90.6576" fromJunction="4way_48" toJunction="3way_92"/>
<trip id="137" depart="91.32419999999999" fromJunction="4way_56" toJunction="4way_38"/>
<trip id="138" depart="91.9908" fromJunction="4way_47" toJunction="4way_54"/>
<trip id="139" depart="92.6574" fromJunction="4way_27" toJunction="3way_40"/>
<trip id="140" depart="93.324" fromJunction="3way_2" toJunction="4way_44"/>
<trip id="141" depart="93.9906" fromJunction="3way_79" toJunction="4way_21"/>
<trip id="142" depart="94.65719999999999" fromJunction="4way_62" toJunction="4way_78"/>
<trip id="143" depart="95.32379999999999" fromJunction="4way_64" toJunction="4way_82"/>
<trip id="144" depart="95.9904" fromJunction="3way_69" toJunction="4way_41"/>
<trip id="145" depart="96.657" fromJunction="3way_96" toJunction="4way_76"/>
<trip id="146" depart="97.3236" fromJunction="3way_93" toJunction="4way_23"/>
<trip id="147" depart="97.9902" fromJunction="4way_37" toJunction="3way_29"/>
<trip id="148" depart="98.65679999999999" fromJunction="4way_58" toJunction="4way_68"/>
<trip id="149" depart="99.32339999999999" fromJunction="4way_36" toJunction="4way_87"/>
<trip id="150" depart="99.99" fromJunction="3way_8" toJunction="3way_10"/>
<trip id="151" depart="100.6566" fromJunction="3way_92" toJunction="4way_81"/>
<trip id="152" depart="101.3232" fromJunction="3way_6" toJunction="3way_59"/>
<trip id="153" depart="101.9898" fromJunction="3way_2" toJunction="4way_65"/>
<trip id="154" depart="102.65639999999999" fromJunction="3way_79" toJunction="4way_26"/>
<trip id="155" depart="103.323" fromJunction="3way_19" toJunction="3way_8"/>
<trip id="156" depart="103.9896" fromJunction="3way_91" toJunction="4way_15"/>
<trip id="157" depart="104.6562" fromJunction="4way_63" toJunction="4way_12"/>
<trip id="158" depart="105.3228" fromJunction="4way_65" toJunction="4way_37"/>
<trip id="159" depart="105.98939999999999" fromJunction="3way_59" toJunction="3way_70"/>
<trip id="160" depart="106.65599999999999" fromJunction="3way_40" toJunction="3way_6"/>
<trip id="161" depart="107.3226" fromJunction="4way_42" toJunction="3way_70"/>
<trip id="162" depart="107.9892" fromJunction="4way_35" toJunction="4way_25"/>
<trip id="163" depart="108.6558" fromJunction="4way_51" toJunction="3way_50"/>
<trip id="164" depart="109.3224" fromJunction="4way_46" toJunction="3way_97"/>
<trip id="165" depart="109.98899999999999" fromJunction="4way_35" toJunction="3way_6"/>
<trip id="166" depart="110.65559999999999" fromJunction="4way_41" toJunction="3way_80"/>
<trip id="167" depart="111.3222" fromJunction="3way_60" toJunction="4way_14"/>
<trip id="168" depart="111.9888" fromJunction="3way_96" toJunction="4way_41"/>
<trip id="169" depart="112.6554" fromJunction="3way_5" toJunction="4way_52"/>
<trip id="170" depart="113.32199999999999" fromJunction="3way_8" toJunction="4way_56"/>
<trip id="171" depart="113.98859999999999" fromJunction="3way_30" toJunction="4way_23"/>
<trip id="172" depart="114.6552" fromJunction="4way_58" toJunction="4way_83"/>
<trip id="173" depart="115.3218" fromJunction="3way_4" toJunction="4way_64"/>
<trip id="174" depart="115.9884" fromJunction="4way_13" toJunction="4way_22"/>
<trip id="175" depart="116.655" fromJunction="4way_25" toJunction="4way_43"/>
<trip id="176" depart="117.32159999999999" fromJunction="3way_59" toJunction="3way_60"/>
<trip id="177" depart="117.98819999999999" fromJunction="4way_48" toJunction="4way_61"/>
<trip id="178" depart="118.6548" fromJunction="4way_77" toJunction="3way_97"/>
<trip id="179" depart="119.3214" fromJunction="4way_42" toJunction="4way_53"/>
<trip id="180" depart="119.988" fromJunction="4way_52" toJunction="4way_57"/>
<trip id="181" depart="120.65459999999999" fromJunction="4way_71" toJunction="4way_65"/>
<trip id="182" depart="121.32119999999999" fromJunction="4way_35" toJunction="4way_77"/>
<trip id="183" depart="121.9878" fromJunction="3way_10" toJunction="4way_45"/>
<trip id="184" depart="122.6544" fromJunction="4way_64" toJunction="4way_16"/>
<trip id="185" depart="123.321" fromJunction="3way_89" toJunction="3way_91"/>
<trip id="186" depart="123.9876" fromJunction="4way_58" toJunction="4way_56"/>
<trip id="187" depart="124.65419999999999" fromJunction="4way_14" toJunction="4way_42"/>
<trip id="188" depart="125.32079999999999" fromJunction="4way_42" toJunction="4way_37"/>
<trip id="189" depart="125.9874" fromJunction="4way_83" toJunction="4way_48"/>
<trip id="190" depart="126.654" fromJunction="4way_87" toJunction="4way_76"/>
<trip id="191" depart="127.3206" fromJunction="3way_89" toJunction="4way_76"/>
<trip id="192" depart="127.9872" fromJunction="4way_71" toJunction="4way_54"/>
<trip id="193" depart="128.6538" fromJunction="4way_12" toJunction="3way_7"/>
<trip id="194" depart="129.3204" fromJunction="4way_27" toJunction="3way_80"/>
<trip id="195" depart="129.987" fromJunction="4way_58" toJunction="3way_4"/>
<trip id="196" depart="130.65359999999998" fromJunction="3way_97" toJunction="3way_2"/>
<trip id="197" depart="131.3202" fromJunction="4way_28" toJunction="4way_71"/>
<trip id="198" depart="131.9868" fromJunction="4way_38" toJunction="3way_29"/>
<trip id="199" depart="132.6534" fromJunction="4way_42" toJunction="4way_47"/>
<trip id="200" depart="133.32" fromJunction="3way_92" toJunction="3way_10"/>
<trip id="201" depart="133.98659999999998" fromJunction="3way_4" toJunction="4way_34"/>
<trip id="202" depart="134.6532" fromJunction="4way_22" toJunction="3way_2"/>
<trip id="203" depart="135.3198" fromJunction="3way_80" toJunction="3way_7"/>
<trip id="204" depart="135.9864" fromJunction="3way_80" toJunction="3way_93"/>
<trip id="205" depart="136.653" fromJunction="3way_2" toJunction="3way_59"/>
<trip id="206" depart="137.31959999999998" fromJunction="4way_44" toJunction="3way_49"/>
<trip id="207" depart="137.9862" fromJunction="4way_88" toJunction="4way_68"/>
<trip id="208" depart="138.65279999999998" fromJunction="3way_89" toJunction="4way_81"/>
<trip id="209" depart="139.3194" fromJunction="4way_82" toJunction="4way_64"/>
<trip id="210" depart="139.986" fromJunction="3way_7" toJunction="4way_78"/>
<trip id="211" depart="140.6526" fromJunction="3way_50" toJunction="4way_46"/>
<trip id="212" depart="141.3192" fromJunction="4way_84" toJunction="3way_91"/>
<trip id="213" depart="141.98579999999998" fromJunction="4way_84" toJunction="3way_91"/>
<trip id="214" depart="142.6524" fromJunction="4way_12" toJunction="4way_23"/>
<trip id="215" depart="143.319" fromJunction="3way_50" toJunction="4way_63"/>
<trip id="216" depart="143.9856" fromJunction="4way_81" toJunction="4way_45"/>
<trip id="217" depart="144.6522" fromJunction="4way_86" toJunction="4way_31"/>
<trip id="218" depart="145.31879999999998" fromJunction="3way_5" toJunction="4way_18"/>
<trip id="219" depart="145.9854" fromJunction="4way_21" toJunction="3way_92"/>
<trip id="220" depart="146.652" fromJunction="4way_78" toJunction="4way_76"/>
<trip id="221" depart="147.3186" fromJunction="4way_77" toJunction="4way_68"/>
<trip id="222" depart="147.9852" fromJunction="4way_88" toJunction="3way_40"/>
<trip id="223" depart="148.65179999999998" fromJunction="3way_39" toJunction="3way_91"/>
<trip id="224" depart="149.3184" fromJunction="3way_92" toJunction="4way_48"/>
<trip id="225" depart="149.98499999999999" fromJunction="3way_6" toJunction="4way_35"/>
<trip id="226" depart="150.6516" fromJunction="4way_57" toJunction="4way_75"/>
<trip id="227" depart="151.3182" fromJunction="4way_51" toJunction="3way_60"/>
<trip id="228" depart="151.9848" fromJunction="4way_85" toJunction="4way_41"/>
<trip id="229" depart="152.6514" fromJunction="3way_98" toJunction="3way_92"/>
<trip id="230" depart="153.31799999999998" fromJunction="3way_30" toJunction="4way_42"/>
<trip id="231" depart="153.9846" fromJunction="3way_92" toJunction="4way_17"/>
<trip id="232" depart="154.6512" fromJunction="4way_38" toJunction="4way_13"/>
<trip id="233" depart="155.3178" fromJunction="4way_47" toJunction="4way_54"/>
<trip id="234" depart="155.9844" fromJunction="4way_16" toJunction="4way_38"/>
<trip id="235" depart="156.65099999999998" fromJunction="4way_58" toJunction="4way_45"/>
<trip id="236" depart="157.3176" fromJunction="4way_42" toJunction="4way_88"/>
<trip id="237" depart="157.9842" fromJunction="3way_40" toJunction="3way_7"/>
<trip id="238" depart="158.6508" fromJunction="4way_12" toJunction="3way_79"/>
<trip id="239" depart="159.3174" fromJunction="4way_24" toJunction="3way_59"/>
<trip id="240" depart="159.98399999999998" fromJunction="4way_67" toJunction="4way_51"/>
<trip id="241" depart="160.6506" fromJunction="4way_53" toJunction="4way_58"/>
<trip id="242" depart="161.31719999999999" fromJunction="4way_14" toJunction="3way_60"/>
<trip id="243" depart="161.9838" fromJunction="4way_81" toJunction="4way_77"/>
<trip id="244" depart="162.6504" fromJunction="3way_60" toJunction="4way_53"/>
<trip id="245" depart="163.31699999999998" fromJunction="4way_71" toJunction="4way_42"/>
<trip id="246" depart="163.9836" fromJunction="4way_13" toJunction="3way_91"/>
<trip id="247" depart="164.65019999999998" fromJunction="4way_41" toJunction="3way_30"/>
<trip id="248" depart="165.3168" fromJunction="4way_16" toJunction="4way_33"/>
<trip id="249" depart="165.9834" fromJunction="4way_18" toJunction="4way_11"/>
<trip id="250" depart="166.65" fromJunction="3way_5" toJunction="4way_37"/>
<trip id="251" depart="167.3166" fromJunction="4way_32" toJunction="3way_80"/>
<trip id="252" depart="167.98319999999998" fromJunction="4way_21" toJunction="3way_39"/>
<trip id="253" depart="168.6498" fromJunction="4way_25" toJunction="4way_85"/>
<trip id="254" depart="169.3164" fromJunction="4way_55" toJunction="4way_44"/>
<trip id="255" depart="169.983" fromJunction="4way_11" toJunction="3way_95"/>
<trip id="256" depart="170.6496" fromJunction="4way_57" toJunction="4way_15"/>
<trip id="257" depart="171.31619999999998" fromJunction="3way_50" toJunction="4way_53"/>
<trip id="258" depart="171.9828" fromJunction="4way_55" toJunction="3way_3"/>
<trip id="259" depart="172.64939999999999" fromJunction="4way_41" toJunction="3way_1"/>
<trip id="260" depart="173.316" fromJunction="4way_18" toJunction="4way_33"/>
<trip id="261" depart="173.9826" fromJunction="4way_71" toJunction="3way_19"/>
<trip id="262" depart="174.64919999999998" fromJunction="4way_11" toJunction="3way_3"/>
<trip id="263" depart="175.3158" fromJunction="3way_60" toJunction="4way_44"/>
<trip id="264" depart="175.98239999999998" fromJunction="3way_49" toJunction="3way_94"/>
<trip id="265" depart="176.649" fromJunction="4way_35" toJunction="4way_83"/>
<trip id="266" depart="177.3156" fromJunction="4way_48" toJunction="4way_15"/>
<trip id="267" depart="177.9822" fromJunction="4way_74" toJunction="3way_1"/>
<trip id="268" depart="178.6488" fromJunction="4way_14" toJunction="4way_24"/>
<trip id="269" depart="179.31539999999998" fromJunction="3way_2" toJunction="4way_58"/>
<trip id="270" depart="179.982" fromJunction="4way_76" toJunction="4way_35"/>
<trip id="271" depart="180.6486" fromJunction="4way_11" toJunction="4way_13"/>
<trip id="272" depart="181.3152" fromJunction="3way_29" toJunction="4way_46"/>
<trip id="273" depart="181.9818" fromJunction="4way_23" toJunction="4way_32"/>
<trip id="274" depart="182.64839999999998" fromJunction="3way_19" toJunction="4way_35"/>
<trip id="275" depart="183.315" fromJunction="4way_81" toJunction="3way_93"/>
<trip id="276" depart="183.9816" fromJunction="4way_67" toJunction="4way_44"/>
<trip id="277" depart="184.6482" fromJunction="3way_59" toJunction="4way_44"/>
<trip id="278" depart="185.3148" fromJunction="4way_47" toJunction="4way_78"/>
<trip id="279" depart="185.98139999999998" fromJunction="4way_18" toJunction="4way_13"/>
<trip id="280" depart="186.648" fromJunction="4way_18" toJunction="4way_43"/>
<trip id="281" depart="187.31459999999998" fromJunction="4way_58" toJunction="4way_86"/>
<trip id="282" depart="187.9812" fromJunction="3way_4" toJunction="4way_18"/>
<trip id="283" depart="188.6478" fromJunction="4way_61" toJunction="3way_98"/>
<trip id="284" depart="189.31439999999998" fromJunction="3way_40" toJunction="4way_48"/>
<trip id="285" depart="189.981" fromJunction="4way_67" toJunction="3way_89"/>
<trip id="286" depart="190.64759999999998" fromJunction="4way_87" toJunction="4way_32"/>
<trip id="287" depart="191.3142" fromJunction="4way_84" toJunction="3way_89"/>
<trip id="288" depart="191.9808" fromJunction="3way_8" toJunction="4way_32"/>
<trip id="289" depart="192.6474" fromJunction="3way_91" toJunction="4way_35"/>
<trip id="290" depart="193.314" fromJunction="3way_6" toJunction="3way_4"/>
<trip id="291" depart="193.98059999999998" fromJunction="4way_87" toJunction="3way_6"/>
<trip id="292" depart="194.6472" fromJunction="4way_77" toJunction="4way_85"/>
<trip id="293" depart="195.3138" fromJunction="4way_33" toJunction="4way_15"/>
<trip id="294" depart="195.9804" fromJunction="4way_88" toJunction="3way_30"/>
<trip id="295" depart="196.647" fromJunction="4way_62" toJunction="4way_31"/>
<trip id="296" depart="197.31359999999998" fromJunction="4way_78" toJunction="4way_51"/>
<trip id="297" depart="197.9802" fromJunction="3way_10" toJunction="3way_98"/>
<trip id="298" depart="198.64679999999998" fromJunction="3way_7" toJunction="4way_25"/>
<trip id="299" depart="199.3134" fromJunction="4way_62" toJunction="4way_34"/>
<trip id="300" depart="199.98" fromJunction="3way_92" toJunction="3way_50"/>
<trip id="301" depart="200.64659999999998" fromJunction="4way_41" toJunction="4way_23"/>
<trip id="302" depart="201.3132" fromJunction="4way_11" toJunction="4way_42"/>
<trip id="303" depart="201.97979999999998" fromJunction="3way_59" toJunction="4way_68"/>
<trip id="304" depart="202.6464" fromJunction="4way_11" toJunction="3way_29"/>
<trip id="305" depart="203.313" fromJunction="4way_84" toJunction="4way_14"/>
<trip id="306" depart="203.9796" fromJunction="4way_88" toJunction="4way_71"/>
<trip id="307" depart="204.6462" fromJunction="4way_65" toJunction="4way_21"/>
<trip id="308" depart="205.31279999999998" fromJunction="4way_76" toJunction="4way_64"/>
<trip id="309" depart="205.9794" fromJunction="4way_67" toJunction="4way_68"/>
<trip id="310" depart="206.646" fromJunction="4way_45" toJunction="4way_26"/>
<trip id="311" depart="207.3126" fromJunction="3way_79" toJunction="4way_11"/>
<trip id="312" depart="207.9792" fromJunction="3way_91" toJunction="3way_7"/>
<trip id="313" depart="208.64579999999998" fromJunction="4way_33" toJunction="4way_22"/>
<trip id="314" depart="209.3124" fromJunction="4way_58" toJunction="4way_36"/>
<trip id="315" depart="209.97899999999998" fromJunction="3way_39" toJunction="3way_49"/>
<trip id="316" depart="210.6456" fromJunction="4way_85" toJunction="4way_14"/>
<trip id="317" depart="211.3122" fromJunction="4way_28" toJunction="4way_27"/>
<trip id="318" depart="211.97879999999998" fromJunction="4way_71" toJunction="4way_78"/>
<trip id="319" depart="212.6454" fromJunction="3way_79" toJunction="4way_51"/>
<trip id="320" depart="213.31199999999998" fromJunction="4way_84" toJunction="4way_25"/>
<trip id="321" depart="213.9786" fromJunction="3way_29" toJunction="4way_37"/>
<trip id="322" depart="214.6452" fromJunction="4way_83" toJunction="4way_82"/>
<trip id="323" depart="215.31179999999998" fromJunction="3way_98" toJunction="3way_91"/>
<trip id="324" depart="215.9784" fromJunction="3way_6" toJunction="4way_37"/>
<trip id="325" depart="216.64499999999998" fromJunction="3way_49" toJunction="4way_62"/>
<trip id="326" depart="217.3116" fromJunction="4way_78" toJunction="4way_42"/>
<trip id="327" depart="217.9782" fromJunction="4way_37" toJunction="4way_12"/>
<trip id="328" depart="218.6448" fromJunction="3way_60" toJunction="3way_49"/>
<trip id="329" depart="219.3114" fromJunction="4way_21" toJunction="4way_15"/>
<trip id="330" depart="219.97799999999998" fromJunction="4way_64" toJunction="4way_55"/>
<trip id="331" depart="220.6446" fromJunction="4way_22" toJunction="4way_71"/>
<trip id="332" depart="221.31119999999999" fromJunction="3way_7" toJunction="4way_34"/>
<trip id="333" depart="221.9778" fromJunction="4way_74" toJunction="4way_76"/>
<trip id="334" depart="222.6444" fromJunction="4way_43" toJunction="4way_65"/>
<trip id="335" depart="223.31099999999998" fromJunction="4way_71" toJunction="3way_39"/>
<trip id="336" depart="223.9776" fromJunction="3way_20" toJunction="4way_71"/>
<trip id="337" depart="224.64419999999998" fromJunction="4way_75" toJunction="3way_3"/>
<trip id="338" depart="225.3108" fromJunction="4way_34" toJunction="3way_39"/>
<trip id="339" depart="225.9774" fromJunction="4way_54" toJunction="4way_45"/>
<trip id="340" depart="226.64399999999998" fromJunction="3way_29" toJunction="4way_58"/>
<trip id="341" depart="227.3106" fromJunction="3way_3" toJunction="4way_47"/>
<trip id="342" depart="227.97719999999998" fromJunction="4way_71" toJunction="4way_43"/>
<trip id="343" depart="228.6438" fromJunction="4way_41" toJunction="4way_33"/>
<trip id="344" depart="229.3104" fromJunction="3way_2" toJunction="3way_96"/>
<trip id="345" depart="229.977" fromJunction="4way_17" toJunction="4way_23"/>
<trip id="346" depart="230.6436" fromJunction="3way_93" toJunction="4way_41"/>
<trip id="347" depart="231.31019999999998" fromJunction="3way_19" toJunction="3way_8"/>
<trip id="348" depart="231.9768" fromJunction="3way_29" toJunction="3way_93"/>
<trip id="349" depart="232.64339999999999" fromJunction="3way_7" toJunction="3way_70"/>
<trip id="350" depart="233.31" fromJunction="4way_37" toJunction="3way_7"/>
<trip id="351" depart="233.9766" fromJunction="4way_63" toJunction="3way_89"/>
<trip id="352" depart="234.64319999999998" fromJunction="4way_42" toJunction="4way_36"/>
<trip id="353" depart="235.3098" fromJunction="3way_95" toJunction="3way_79"/>
<trip id="354" depart="235.97639999999998" fromJunction="4way_33" toJunction="4way_22"/>
<trip id="355" depart="236.643" fromJunction="4way_46" toJunction="4way_21"/>
<trip id="356" depart="237.3096" fromJunction="4way_28" toJunction="4way_16"/>
<trip id="357" depart="237.97619999999998" fromJunction="4way_67" toJunction="3way_3"/>
<trip id="358" depart="238.6428" fromJunction="4way_57" toJunction="4way_61"/>
<trip id="359" depart="239.30939999999998" fromJunction="4way_78" toJunction="4way_35"/>
<trip id="360" depart="239.976" fromJunction="4way_31" toJunction="4way_16"/>
<trip id="361" depart="240.6426" fromJunction="4way_51" toJunction="4way_13"/>
<trip id="362" depart="241.30919999999998" fromJunction="3way_70" toJunction="4way_41"/>
<trip id="363" depart="241.9758" fromJunction="4way_25" toJunction="4way_82"/>
<trip id="364" depart="242.64239999999998" fromJunction="4way_33" toJunction="3way_60"/>
<trip id="365" depart="243.309" fromJunction="3way_89" toJunction="3way_49"/>
<trip id="366" depart="243.9756" fromJunction="4way_68" toJunction="3way_5"/>
<trip id="367" depart="244.6422" fromJunction="3way_97" toJunction="3way_1"/>
<trip id="368" depart="245.3088" fromJunction="3way_8" toJunction="4way_34"/>