<routes xmlns:xsi="http://www.w3.org/2001/XMLSchema-instance" xsi:noNamespaceSchemaLocation="http://sumo.dlr.de/xsd/routes_file.xsd">
<trip id="0" depart="0.0" fromJunction="4way_7" toJunction="3way_5"/>
<trip id="1" depart="0.421" fromJunction="3way_5" toJunction="4way_6"/>
<trip id="2" depart="0.842" fromJunction="4way_11" toJunction="3way_21"/>
<trip id="3" depart="1.263" fromJunction="4way_8" toJunction="3way_15"/>
<trip id="4" depart="1.684" fromJunction="3way_21" toJunction="4way_18"/>
<trip id="5" depart="2.105" fromJunction="3way_5" toJunction="4way_12"/>
<trip id="6" depart="2.526" fromJunction="4way_13" toJunction="3way_5"/>
<trip id="7" depart="2.947" fromJunction="4way_17" toJunction="3way_1"/>
<trip id="8" depart="3.368" fromJunction="4way_8" toJunction="4way_12"/>
<trip id="9" depart="3.7889999999999997" fromJunction="4way_12" toJunction="4way_18"/>
<trip id="10" depart="4.21" fromJunction="4way_12" toJunction="3way_15"/>
<trip id="11" depart="4.631" fromJunction="4way_11" toJunction="3way_3"/>
<trip id="12" depart="5.052" fromJunction="4way_13" toJunction="3way_9"/>
<trip id="13" depart="5.473" fromJunction="3way_21" toJunction="3way_10"/>
<trip id="14" depart="5.894" fromJunction="4way_12" toJunction="3way_19"/>
<trip id="15" depart="6.3149999999999995" fromJunction="3way_5" toJunction="3way_15"/>
<trip id="16" depart="6.736" fromJunction="4way_6" toJunction="3way_1"/>
<trip id="17" depart="7.157" fromJunction="4way_16" toJunction="4way_13"/>
<trip id="18" depart="7.577999999999999" fromJunction="3way_15" toJunction="3way_22"/>
<trip id="19" depart="7.999" fromJunction="3way_2" toJunction="4way_16"/>
<trip id="20" depart="8.42" fromJunction="3way_3" toJunction="3way_14"/>
<trip id="21" depart="8.841" fromJunction="3way_22" toJunction="3way_23"/>
<trip id="22" depart="9.262" fromJunction="3way_15" toJunction="3way_5"/>
<trip id="23" depart="9.683" fromJunction="3way_3" toJunction="4way_18"/>
<trip id="24" depart="10.104" fromJunction="3way_9" toJunction="3way_14"/>
<trip id="25" depart="10.525" fromJunction="3way_19" toJunction="4way_11"/>
<trip id="26" depart="10.946" fromJunction="3way_19" toJunction="3way_15"/>
<trip id="27" depart="11.366999999999999" fromJunction="3way_3" toJunction="3way_9"/>
<trip id="28" depart="11.788" fromJunction="3way_3" toJunction="4way_11"/>
<trip id="29" depart="12.209" fromJunction="3way_22" toJunction="3way_14"/>
<trip id="30" depart="12.629999999999999" fromJunction="3way_3" toJunction="4way_17"/>
<trip id="31" depart="13.051" fromJunction="3way_3" toJunction="4way_17"/>
<trip id="32" depart="13.472" fromJunction="3way_15" toJunction="4way_18"/>
<trip id="33" depart="13.892999999999999" fromJunction="4way_6" toJunction="4way_18"/>
<trip id="34" depart="14.314" fromJunction="3way_1" toJunction="4way_7"/>
<trip id="35" depart="14.735" fromJunction="3way_3" toJunction="3way_19"/>
<trip id="36" depart="15.155999999999999" fromJunction="3way_3" toJunction="3way_23"/>
<trip id="37" depart="15.577" fromJunction="3way_21" toJunction="3way_23"/>
<trip id="38" depart="15.998" fromJunction="4way_16" toJunction="3way_2"/>
<trip id="39" depart="16.419" fromJunction="3way_19" toJunction="3way_5"/>
<trip id="40" depart="16.84" fromJunction="3way_2" toJunction="3way_10"/>
<trip id="41" depart="17.261" fromJunction="4way_13" toJunction="4way_6"/>
<trip id="42" depart="17.682" fromJunction="4way_16" toJunction="3way_23"/>
<trip id="43" depart="18.102999999999998" fromJunction="4way_7" toJunction="3way_3"/>
<trip id="44" depart="18.524" fromJunction="3way_9" toJunction="3way_23"/>
<trip id="45" depart="18.945" fromJunction="3way_1" toJunction="4way_6"/>
<trip id="46" depart="19.366" fromJunction="3way_1" toJunction="4way_17"/>
<trip id="47" depart="19.787" fromJunction="3way_19" toJunction="4way_16"/>
<trip id="48" depart="20.208" fromJunction="4way_18" toJunction="4way_7"/>
<trip id="49" depart="20.628999999999998" fromJunction="4way_6" toJunction="3way_19"/>
<trip id="50" depart="21.05" fromJunction="4way_18" toJunction="3way_14"/>
<trip id="51" depart="21.471" fromJunction="4way_17" toJunction="3way_15"/>
<trip id="52" depart="21.892" fromJunction="3way_23" toJunction="4way_16"/>
<trip id="53" depart="22.313" fromJunction="3way_21" toJunction="4way_17"/>
<trip id="54" depart="22.733999999999998" fromJunction="4way_6" toJunction="4way_8"/>
<trip id="55" depart="23.154999999999998" fromJunction="4way_16" toJunction="4way_8"/>
<trip id="56" depart="23.576" fromJunction="3way_10" toJunction="4way_7"/>
<trip id="57" depart="23.997" fromJunction="4way_11" toJunction="4way_18"/>
<trip id="58" depart="24.418" fromJunction="4way_6" toJunction="3way_21"/>
<trip id="59" depart="24.839" fromJunction="3way_23" toJunction="3way_1"/>
<trip id="60" depart="25.259999999999998" fromJunction="3way_23" toJunction="4way_11"/>
<trip id="61" depart="25.680999999999997" fromJunction="3way_15" toJunction="4way_6"/>
<trip id="62" depart="26.102" fromJunction="3way_23" toJunction="3way_3"/>
<trip id="63" depart="26.523" fromJunction="4way_6" toJunction="3way_5"/>
<trip id="64" depart="26.944" fromJunction="4way_11" toJunction="4way_6"/>
<trip id="65" depart="27.365" fromJunction="3way_15" toJunction="4way_11"/>
<trip id="66" depart="27.785999999999998" fromJunction="3way_22" toJunction="4way_8"/>
<trip id="67" depart="28.207" fromJunction="4way_8" toJunction="3way_15"/>
<trip id="68" depart="28.628" fromJunction="4way_16" toJunction="4way_12"/>
<trip id="69" depart="29.049" fromJunction="4way_13" toJunction="3way_3"/>
<trip id="70" depart="29.47" fromJunction="4way_18" toJunction="4way_16"/>
<trip id="71" depart="29.891" fromJunction="4way_8" toJunction="3way_9"/>
<trip id="72" depart="30.311999999999998" fromJunction="4way_6" toJunction="3way_9"/>
<trip id="73" depart="30.733" fromJunction="4way_17" toJunction="3way_3"/>
<trip id="74" depart="31.154" fromJunction="3way_5" toJunction="4way_12"/>
<trip id="75" depart="31.575" fromJunction="3way_2" toJunction="3way_21"/>
<trip id="76" depart="31.996" fromJunction="3way_15" toJunction="4way_16"/>
<trip id="77" depart="32.417" fromJunction="4way_8" toJunction="4way_7"/>
<trip id="78" depart="32.838" fromJunction="4way_17" toJunction="4way_18"/>
<trip id="79" depart="33.259" fromJunction="3way_22" toJunction="3way_1"/>
<trip id="80" depart="33.68" fromJunction="3way_9" toJunction="4way_7"/>
<trip id="81" depart="34.101" fromJunction="3way_2" toJunction="3way_10"/>
<trip id="82" depart="34.522" fromJunction="3way_1" toJunction="3way_14"/>
<trip id="83" depart="34.943" fromJunction="3way_14" toJunction="4way_12"/>
<trip id="84" depart="35.364" fromJunction="4way_13" toJunction="3way_22"/>
<trip id="85" depart="35.785" fromJunction="3way_1" toJunction="4way_16"/>
<trip id="86" depart="36.205999999999996" fromJunction="4way_11" toJunction="3way_9"/>
<trip id="87" depart="36.626999999999995" fromJunction="3way_14" toJunction="4way_6"/>
<trip id="88" depart="37.048" fromJunction="4way_6" toJunction="4way_13"/>
<trip id="89" depart="37.469" fromJunction="4way_6" toJunction="3way_5"/>
<trip id="90" depart="37.89" fromJunction="3way_23" toJunction="4way_7"/>
<trip id="91" depart="38.311" fromJunction="3way_14" toJunction="3way_21"/>
<trip id="92" depart="38.732" fromJunction="4way_13" toJunction="3way_9"/>
<trip id="93" depart="39.153" fromJunction="3way_10" toJunction="4way_7"/>
<trip id="94" depart="39.574" fromJunction="3way_19" toJunction="3way_14"/>
<trip id="95" depart="39.995" fromJunction="3way_15" toJunction="3way_2"/>
<trip id="96" depart="40.416" fromJunction="4way_16" toJunction="3way_23"/>
<trip id="97" depart="40.836999999999996" fromJunction="3way_9" toJunction="3way_22"/>
<trip id="98" depart="41.257999999999996" fromJunction="3way_2" toJunction="3way_1"/>
<trip id="99" depart="41.679" fromJunction="3way_15" toJunction="4way_16"/>
<trip id="100" depart="42.1" fromJunction="4way_8" toJunction="3way_5"/>
<trip id="101" depart="42.521" fromJunction="3way_14" toJunction="4way_18"/>
<trip id="102" depart="42.942" fromJunction="3way_19" toJunction="4way_11"/>
<trip id="103" depart="43.363" fromJunction="4way_7" toJunction="3way_1"/>
<trip id="104" depart="43.784" fromJunction="3way_21" toJunction="3way_23"/>
<trip id="105" depart="44.205" fromJunction="4way_17" toJunction="4way_6"/>
<trip id="106" depart="44.626" fromJunction="4way_8" toJunction="4way_11"/>
<trip id="107" depart="45.047" fromJunction="4way_12" toJunction="3way_19"/>
<trip id="108" depart="45.467999999999996" fromJunction="4way_18" toJunction="3way_9"/>
<trip id="109" depart="45.888999999999996" fromJunction="3way_14" toJunction="4way_16"/>
<trip id="110" depart="46.309999999999995" fromJunction="4way_7" toJunction="4way_13"/>
<trip id="111" depart="46.731" fromJunction="3way_14" toJunction="3way_19"/>
<trip id="112" depart="47.152" fromJunction="3way_1" toJunction="3way_10"/>
<trip id="113" depart="47.573" fromJunction="3way_21" toJunction="3way_14"/>
<trip id="114" depart="47.994" fromJunction="3way_15" toJunction="3way_22"/>
<trip id="115" depart="48.415" fromJunction="4way_6" toJunction="3way_19"/>
<trip id="116" depart="48.836" fromJunction="3way_3" toJunction="4way_8"/>
<trip id="117" depart="49.257" fromJunction="3way_3" toJunction="3way_10"/>
<trip id="118" depart="49.678" fromJunction="3way_21" toJunction="4way_7"/>
<trip id="119" depart="50.099" fromJunction="3way_9" toJunction="3way_5"/>
<trip id="120" depart="50.519999999999996" fromJunction="3way_10" toJunction="3way_9"/>
<trip id="121" depart="50.940999999999995" fromJunction="4way_13" toJunction="3way_22"/>
<trip id="122" depart="51.361999999999995" fromJunction="4way_7" toJunction="4way_12"/>
<trip id="123" depart="51.783" fromJunction="3way_2" toJunction="4way_8"/>
<trip id="124" depart="52.204" fromJunction="4way_6" toJunction="3way_5"/>
<trip id="125" depart="52.625" fromJunction="3way_23" toJunction="4way_18"/>
<trip id="126" depart="53.046" fromJunction="3way_3" toJunction="3way_19"/>
<trip id="127" depart="53.467" fromJunction="4way_13" toJunction="3way_1"/>
<trip id="128" depart="53.888" fromJunction="4way_12" toJunction="4way_16"/>
<trip id="129" depart="54.309" fromJunction="4way_6" toJunction="3way_19"/>
<trip id="130" depart="54.73" fromJunction="3way_10" toJunction="3way_2"/>
<trip id="131" depart="55.150999999999996" fromJunction="4way_8" toJunction="4way_18"/>
<trip id="132" depart="55.571999999999996" fromJunction="4way_18" toJunction="3way_22"/>
<trip id="133" depart="55.992999999999995" fromJunction="4way_13" toJunction="3way_14"/>
<trip id="134" depart="56.414" fromJunction="4way_12" toJunction="4way_13"/>
<trip id="135" depart="56.835" fromJunction="4way_8" toJunction="4way_11"/>
<trip id="136" depart="57.256" fromJunction="4way_17" toJunction="3way_23"/>
<trip id="137" depart="57.677" fromJunction="3way_1" toJunction="4way_6"/>
<trip id="138" depart="58.098" fromJunction="3way_9" toJunction="3way_22"/>
<trip id="139" depart="58.519" fromJunction="3way_10" toJunction="4way_18"/>
<trip id="140" depart="58.94" fromJunction="4way_11" toJunction="3way_10"/>
<trip id="141" depart="59.361" fromJunction="3way_3" toJunction="3way_22"/>
<trip id="142" depart="59.782" fromJunction="3way_9" toJunction="4way_17"/>
<trip id="143" depart="60.202999999999996" fromJunction="3way_14" toJunction="3way_10"/>
<trip id="144" depart="60.623999999999995" fromJunction="4way_8" toJunction="3way_3"/>
<trip id="145" depart="61.044999999999995" fromJunction="4way_12" toJunction="4way_13"/>
<trip id="146" depart="61.466" fromJunction="3way_2" toJunction="3way_23"/>
<trip id="147" depart="61.887" fromJunction="3way_14" toJunction="3way_21"/>
<trip id="148" depart="62.308" fromJunction="3way_2" toJunction="3way_3"/>
<trip id="149" depart="62.729" fromJunction="3way_1" toJunction="4way_7"/>
<trip id="150" depart="63.15" fromJunction="3way_9" toJunction="4way_12"/>
<trip id="151" depart="63.571" fromJunction="3way_19" toJunction="4way_16"/>
<trip id="152" depart="63.992" fromJunction="3way_5" toJunction="3way_21"/>
<trip id="153" depart="64.413" fromJunction="4way_7" toJunction="4way_8"/>
<trip id="154" depart="64.834" fromJunction="3way_3" toJunction="3way_19"/>
<trip id="155" depart="65.255" fromJunction="3way_23" toJunction="3way_2"/>
<trip id="156" depart="65.676" fromJunction="3way_15" toJunction="3way_19"/>
<trip id="157" depart="66.097" fromJunction="3way_22" toJunction="3way_19"/>
<trip id="158" depart="66.518" fromJunction="4way_12" toJunction="3way_9"/>
<trip id="159" depart="66.939" fromJunction="4way_16" toJunction="3way_2"/>
<trip id="160" depart="67.36" fromJunction="3way_22" toJunction="3way_19"/>
<trip id="161" depart="67.78099999999999" fromJunction="3way_19" toJunction="4way_6"/>
<trip id="162" depart="68.202" fromJunction="3way_14" toJunction="3way_22"/>
<trip id="163" depart="68.623" fromJunction="3way_1" toJunction="3way_15"/>
<trip id="164" depart="69.044" fromJunction="3way_2" toJunction="4way_12"/>
<trip id="165" depart="69.465" fromJunction="3way_23" toJunction="3way_10"/>
<trip id="166" depart="69.886" fromJunction="4way_18" toJunction="4way_6"/>
<trip id="167" depart="70.307" fromJunction="3way_1" toJunction="4way_11"/>
<trip id="168" depart="70.728" fromJunction="3way_10" toJunction="3way_15"/>
<trip id="169" depart="71.149" fromJunction="4way_16" toJunction="3way_5"/>
<trip id="170" depart="71.57" fromJunction="3way_3" toJunction="3way_19"/>
<trip id="171" depart="71.991" fromJunction="4way_18" toJunction="3way_21"/>
<trip id="172" depart="72.41199999999999" fromJunction="4way_8" toJunction="3way_9"/>
<trip id="173" depart="72.833" fromJunction="3way_15" toJunction="3way_5"/>
<trip id="174" depart="73.25399999999999" fromJunction="3way_15" toJunction="4way_8"/>
<trip id="175" depart="73.675" fromJunction="3way_21" toJunction="4way_7"/>
<trip id="176" depart="74.096" fromJunction="4way_16" toJunction="4way_8"/>
<trip id="177" depart="74.517" fromJunction="3way_23" toJunction="4way_16"/>
<trip id="178" depart="74.938" fromJunction="4way_11" toJunction="4way_7"/>
<trip id="179" depart="75.359" fromJunction="3way_9" toJunction="3way_19"/>
<trip id="180" depart="75.78" fromJunction="4way_18" toJunction="4way_12"/>
<trip id="181" depart="76.201" fromJunction="4way_6" toJunction="3way_15"/>
<trip id="182" depart="76.622" fromJunction="3way_15" toJunction="4way_8"/>
<trip id="183" depart="77.04299999999999" fromJunction="4way_6" toJunction="4way_13"/>
<trip id="184" depart="77.464" fromJunction="4way_13" toJunction="4way_17"/>
<trip id="185" depart="77.88499999999999" fromJunction="3way_9" toJunction="4way_17"/>
<trip id="186" depart="78.306" fromJunction="3way_21" toJunction="4way_11"/>
<trip id="187" depart="78.727" fromJunction="3way_21" toJunction="3way_2"/>
<trip id="188" depart="79.148" fromJunction="4way_17" toJunction="3way_19"/>
<trip id="189" depart="79.569" fromJunction="4way_18" toJunction="3way_1"/>
<trip id="190" depart="79.99" fromJunction="3way_9" toJunction="3way_1"/>
<trip id="191" depart="80.411" fromJunction="4way_13" toJunction="3way_21"/>
<trip id="192" depart="80.832" fromJunction="4way_13" toJunction="3way_3"/>
<trip id="193" depart="81.253" fromJunction="3way_15" toJunction="4way_8"/>
<trip id="194" depart="81.67399999999999" fromJunction="3way_14" toJunction="3way_23"/>
<trip id="195" depart="82.095" fromJunction="3way_1" toJunction="4way_6"/>
<trip id="196" depart="82.51599999999999" fromJunction="3way_15" toJunction="3way_1"/>
<trip id="197" depart="82.937" fromJunction="3way_19" toJunction="3way_2"/>
<trip id="198" depart="83.358" fromJunction="3way_19" toJunction="3way_14"/>
<trip id="199" depart="83.779" fromJunction="3way_1" toJunction="3way_3"/>
<trip id="200" depart="84.2" fromJunction="4way_6" toJunction="3way_3"/>
<trip id="201" depart="84.621" fromJunction="3way_9" toJunction="3way_21"/>
<trip id="202" depart="85.042" fromJunction="3way_10" toJunction="4way_11"/>
<trip id="203" depart="85.463" fromJunction="3way_2" toJunction="4way_18"/>
<trip id="204" depart="85.884" fromJunction="3way_23" toJunction="4way_12"/>
<trip id="205" depart="86.30499999999999" fromJunction="4way_11" toJunction="3way_19"/>
<trip id="206" depart="86.726" fromJunction="4way_11" toJunction="3way_19"/>
<trip id="207" depart="87.14699999999999" fromJunction="3way_21" toJunction="3way_10"/>
<trip id="208" depart="87.568" fromJunction="3way_23" toJunction="3way_5"/>
<trip id="209" depart="87.98899999999999" fromJunction="3way_21" toJunction="4way_16"/>
<trip id="210" depart="88.41" fromJunction="4way_17" toJunction="3way_22"/>
<trip id="211" depart="88.831" fromJunction="3way_1" toJunction="4way_13"/>
<trip id="212" depart="89.252" fromJunction="3way_22" toJunction="3way_14"/>
<trip id="213" depart="89.673" fromJunction="4way_18" toJunction="4way_17"/>
<trip id="214" depart="90.094" fromJunction="4way_13" toJunction="4way_18"/>
<trip id="215" depart="90.515" fromJunction="4way_18" toJunction="3way_23"/>
<trip id="216" depart="90.93599999999999" fromJunction="3way_3" toJunction="3way_19"/>
<trip id="217" depart="91.357" fromJunction="3way_14" toJunction="4way_13"/>
<trip id="218" depart="91.77799999999999" fromJunction="3way_2" toJunction="4way_16"/>
<trip id="219" depart="92.199" fromJunction="4way_8" toJunction="4way_7"/>
<trip id="220" depart="92.61999999999999" fromJunction="3way_22" toJunction="3way_19"/>
<trip id="221" depart="93.041" fromJunction="4way_7" toJunction="3way_22"/>
<trip id="222" depart="93.462" fromJunction="3way_9" toJunction="3way_14"/>
<trip id="223" depart="93.883" fromJunction="3way_23" toJunction="3way_15"/>
<trip id="224" depart="94.304" fromJunction="3way_14" toJunction="4way_17"/>
<trip id="225" depart="94.725" fromJunction="4way_13" toJunction="3way_10"/>
<trip id="226" depart="95.146" fromJunction="4way_8" toJunction="4way_11"/>
<trip id="227" depart="95.567" fromJunction="4way_7" toJunction="4way_13"/>
<trip id="228" depart="95.988" fromJunction="4way_18" toJunction="4way_16"/>
<trip id="229" depart="96.40899999999999" fromJunction="3way_15" toJunction="4way_18"/>
<trip id="230" depart="96.83" fromJunction="3way_23" toJunction="3way_2"/>
<trip id="231" depart="97.25099999999999" fromJunction="3way_21" toJunction="3way_9"/>
<trip id="232" depart="97.672" fromJunction="4way_6" toJunction="3way_3"/>
<trip id="233" depart="98.093" fromJunction="4way_8" toJunction="3way_21"/>
<trip id="234" depart="98.514" fromJunction="3way_5" toJunction="4way_18"/>
<trip id="235" depart="98.935" fromJunction="4way_6" toJunction="3way_19"/>
<trip id="236" depart="99.356" fromJunction="3way_21" toJunction="4way_8"/>
<trip id="237" depart="99.777" fromJunction="3way_19" toJunction="3way_5"/>
<trip id="238" depart="100.198" fromJunction="3way_21" toJunction="3way_15"/>
<trip id="239" depart="100.619" fromJunction="3way_10" toJunction="3way_19"/>
<trip id="240" depart="101.03999999999999" fromJunction="3way_22" toJunction="3way_23"/>
<trip id="241" depart="101.461" fromJunction="4way_7" toJunction="3way_5"/>
<trip id="242" depart="101.88199999999999" fromJunction="4way_13" toJunction="3way_22"/>
<trip id="243" depart="102.303" fromJunction="3way_2" toJunction="4way_8"/>
<trip id="244" depart="102.72399999999999" fromJunction="3way_15" toJunction="3way_19"/>
<trip id="245" depart="103.145" fromJunction="3way_22" toJunction="3way_3"/>
<trip id="246" depart="103.566" fromJunction="4way_16" toJunction="4way_7"/>
<trip id="247" depart="103.987" fromJunction="4way_16" toJunction="4way_11"/>
<trip id="248" depart="104.408" fromJunction="3way_22" toJunction="3way_14"/>
<trip id="249" depart="104.829" fromJunction="4way_8" toJunction="4way_16"/>
<trip id="250" depart="105.25" fromJunction="3way_19" toJunction="3way_5"/>
<trip id="251" depart="105.67099999999999" fromJunction="4way_16" toJunction="3way_1"/>
<trip id="252" depart="106.092" fromJunction="3way_22" toJunction="3way_1"/>
<trip id="253" depart="106.51299999999999" fromJunction="4way_13" toJunction="3way_5"/>
<trip id="254" depart="106.934" fromJunction="3way_21" toJunction="3way_2"/>
<trip id="255" depart="107.35499999999999" fromJunction="3way_22" toJunction="3way_1"/>
<trip id="256" depart="107.776" fromJunction="3way_19" toJunction="4way_11"/>
<trip id="257" depart="108.197" fromJunction="3way_3" toJunction="3way_14"/>
<trip id="258" depart="108.618" fromJunction="4way_16" toJunction="4way_6"/>
<trip id="259" depart="109.039" fromJunction="4way_13" toJunction="4way_16"/>
<trip id="260" depart="109.46" fromJunction="4way_11" toJunction="3way_1"/>
<trip id="261" depart="109.881" fromJunction="3way_1" toJunction="4way_18"/>
<trip id="262" depart="110.30199999999999" fromJunction="4way_17" toJunction="4way_16"/>
<trip id="263" depart="110.723" fromJunction="3way_22" toJunction="3way_10"/>
<trip id="264" depart="111.14399999999999" fromJunction="3way_3" toJunction="4way_12"/>
<trip id="265" depart="111.565" fromJunction="3way_10" toJunction="3way_15"/>
<trip id="266" depart="111.98599999999999" fromJunction="3way_2" toJunction="4way_16"/>
<trip id="267" depart="112.407" fromJunction="3way_21" toJunction="3way_14"/>
<trip id="268" depart="112.828" fromJunction="4way_8" toJunction="4way_11"/>
<trip id="269" depart="113.249" fromJunction="3way_3" toJunction="4way_6"/>
<trip id="270" depart="113.67" fromJunction="4way_8" toJunction="4way_18"/>
<trip id="271" depart="114.091" fromJunction="4way_13" toJunction="3way_10"/>
<trip id="272" depart="114.512" fromJunction="4way_13" toJunction="3way_5"/>
<trip id="273" depart="114.93299999999999" fromJunction="4way_18" toJunction="4way_17"/>
<trip id="274" depart="115.354" fromJunction="3way_1" toJunction="4way_13"/>
<trip id="275" depart="115.77499999999999" fromJunction="3way_21" toJunction="3way_9"/>
<trip id="276" depart="116.196" fromJunction="3way_23" toJunction="4way_13"/>
<trip id="277" depart="116.61699999999999" fromJunction="4way_8" toJunction="3way_9"/>
<trip id="278" depart="117.038" fromJunction="4way_13" toJunction="3way_15"/>
<trip id="279" depart="117.45899999999999" fromJunction="4way_11" toJunction="3way_9"/>
<trip id="280" depart="117.88" fromJunction="3way_2" toJunction="3way_15"/>
<trip id="281" depart="118.301" fromJunction="3way_19" toJunction="4way_16"/>
<trip id="282" depart="118.722" fromJunction="3way_2" toJunction="3way_1"/>
<trip id="283" depart="119.143" fromJunction="4way_13" toJunction="3way_2"/>
<trip id="284" depart="119.564" fromJunction="4way_8" toJunction="4way_7"/>
<trip id="285" depart="119.985" fromJunction="3way_5" toJunction="4way_16"/>
<trip id="286" depart="120.40599999999999" fromJunction="4way_18" toJunction="3way_23"/>
<trip id="287" depart="120.827" fromJunction="3way_15" toJunction="3way_22"/>
<trip id="288" depart="121.24799999999999" fromJunction="4way_18" toJunction="3way_22"/>
<trip id="289" depart="121.669" fromJunction="3way_23" toJunction="3way_9"/>
<trip id="290" depart="122.08999999999999" fromJunction="3way_2" toJunction="4way_16"/>
<trip id="291" depart="122.511" fromJunction="3way_10" toJunction="4way_6"/>
<trip id="292" depart="122.932" fromJunction="3way_22" toJunction="3way_10"/>
<trip id="293" depart="123.353" fromJunction="3way_22" toJunction="3way_15"/>
<trip id="294" depart="123.774" fromJunction="3way_3" toJunction="4way_18"/>
<trip id="295" depart="124.195" fromJunction="3way_22" toJunction="3way_3"/>
<trip id="296" depart="124.616" fromJunction="4way_11" toJunction="4way_6"/>
<trip id="297" depart="125.03699999999999" fromJunction="4way_18" toJunction="3way_21"/>
<trip id="298" depart="125.458" fromJunction="4way_7" toJunction="3way_22"/>
<trip id="299" depart="125.87899999999999" fromJunction="4way_17" toJunction="4way_11"/>
<trip id="300" depart="126.3" fromJunction="4way_8" toJunction="4way_18"/>
<trip id="301" depart="126.72099999999999" fromJunction="4way_16" toJunction="4way_12"/>
<trip id="302" depart="127.142" fromJunction="3way_9" toJunction="3way_22"/>
<trip id="303" depart="127.563" fromJunction="3way_19" toJunction="3way_2"/>
<trip id="304" depart="127.984" fromJunction="3way_10" toJunction="3way_15"/>
<trip id="305" depart="128.405" fromJunction="4way_18" toJunction="4way_12"/>
<trip id="306" depart="128.826" fromJunction="4way_7" toJunction="4way_6"/>
<trip id="307" depart="129.24699999999999" fromJunction="4way_13" toJunction="4way_17"/>
<trip id="308" depart="129.668" fromJunction="3way_21" toJunction="4way_18"/>
<trip id="309" depart="130.089" fromJunction="3way_9" toJunction="3way_22"/>
<trip id="310" depart="130.51" fromJunction="4way_11" toJunction="4way_16"/>
<trip id="311" depart="130.93099999999998" fromJunction="3way_3" toJunction="4way_8"/>
<trip id="312" depart="131.352" fromJunction="4way_6" toJunction="3way_10"/>
<trip id="313" depart="131.773" fromJunction="3way_9" toJunction="3way_19"/>
<trip id="314" depart="132.194" fromJunction="3way_2" toJunction="4way_8"/>
<trip id="315" depart="132.615" fromJunction="3way_3" toJunction="3way_15"/>
<trip id="316" depart="133.036" fromJunction="4way_18" toJunction="3way_15"/>
<trip id="317" depart="133.457" fromJunction="4way_17" toJunction="3way_21"/>
<trip id="318" depart="133.878" fromJunction="3way_19" toJunction="3way_3"/>
<trip id="319" depart="134.299" fromJunction="3way_22" toJunction="4way_16"/>
<trip id="320" depart="134.72" fromJunction="4way_11" toJunction="4way_16"/>
<trip id="321" depart="135.141" fromJunction="3way_15" toJunction="3way_21"/>
<trip id="322" depart="135.56199999999998" fromJunction="3way_2" toJunction="4way_6"/>
<trip id="323" depart="135.983" fromJunction="4way_11" toJunction="4way_17"/>
<trip id="324" depart="136.404" fromJunction="3way_5" toJunction="4way_7"/>
<trip id="325" depart="136.825" fromJunction="3way_21" toJunction="3way_3"/>
<trip id="326" depart="137.246" fromJunction="3way_23" toJunction="3way_21"/>
<trip id="327" depart="137.667" fromJunction="4way_7" toJunction="3way_1"/>
<trip id="328" depart="138.088" fromJunction="4way_6" toJunction="3way_3"/>
<trip id="329" depart="138.509" fromJunction="4way_11" toJunction="4way_16"/>
<trip id="330" depart="138.93" fromJunction="3way_3" toJunction="4way_18"/>
<trip id="331" depart="139.351" fromJunction="3way_1" toJunction="4way_8"/>
<trip id="332" depart="139.772" fromJunction="3way_21" toJunction="3way_5"/>
<trip id="333" depart="140.19299999999998" fromJunction="3way_22" toJunction="3way_5"/>
<trip id="334" depart="140.614" fromJunction="3way_1" toJunction="3way_14"/>
<trip id="335" depart="141.035" fromJunction="4way_17" toJunction="3way_10"/>
<trip id="336" depart="141.456" fromJunction="3way_14" toJunction="3way_22"/>
<trip id="337" depart="141.87699999999998" fromJunction="3way_3" toJunction="3way_14"/>
<trip id="338" depart="142.298" fromJunction="3way_2" toJunction="3way_19"/>
<trip id="339" depart="142.719" fromJunction="4way_17" toJunction="3way_2"/>
<trip id="340" depart="143.14" fromJunction="3way_5" toJunction="3way_9"/>
<trip id="341" depart="143.561" fromJunction="3way_15" toJunction="4way_12"/>
<trip id="342" depart="143.982" fromJunction="3way_14" toJunction="3way_9"/>
<trip id="343" depart="144.403" fromJunction="3way_5" toJunction="3way_15"/>
<trip id="344" depart="144.82399999999998" fromJunction="4way_12" toJunction="3way_22"/>
<trip id="345" depart="145.245" fromJunction="4way_13" toJunction="4way_7"/>
<trip id="346" depart="145.666" fromJunction="4way_8" toJunction="3way_1"/>
<trip id="347" depart="146.087" fromJunction="4way_8" toJunction="3way_21"/>
<trip id="348" depart="146.50799999999998" fromJunction="4way_18" toJunction="4way_16"/>
<trip id="349" depart="146.929" fromJunction="3way_22" toJunction="4way_7"/>
<trip id="350" depart="147.35" fromJunction="3way_22" toJunction="3way_10"/>
<trip id="351" depart="147.771" fromJunction="3way_19" toJunction="3way_22"/>
<trip id="352" depart="148.192" fromJunction="4way_16" toJunction="3way_10"/>
<trip id="353" depart="148.613" fromJunction="3way_5" toJunction="3way_19"/>
<trip id="354" depart="149.034" fromJunction="3way_9" toJunction="3way_3"/>
<trip id="355" depart="149.45499999999998" fromJunction="4way_18" toJunction="3way_1"/>
<trip id="356" depart="149.876" fromJunction="3way_9" toJunction="3way_1"/>
<trip id="357" depart="150.297" fromJunction="3way_2" toJunction="4way_6"/>
<trip id="358" depart="150.718" fromJunction="4way_7" toJunction="4way_8"/>
<trip id="359" depart="151.13899999999998" fromJunction="3way_10" toJunction="4way_18"/>
<trip id="360" depart="151.56" fromJunction="3way_5" toJunction="3way_23"/>
<trip id="361" depart="151.981" fromJunction="3way_10" toJunction="4way_13"/>
<trip id="362" depart="152.402" fromJunction="4way_8" toJunction="3way_19"/>
<trip id="363" depart="152.823" fromJunction="3way_1" toJunction="3way_22"/>
<trip id="364" depart="153.244" fromJunction="3way_23" toJunction="3way_19"/>
<trip id="365" depart="153.665" fromJunction="3way_15" toJunction="4way_8"/>
<trip id="366" depart="154.08599999999998" fromJunction="3way_22" toJunction="3way_15"/>
<trip id="367" depart="154.507" fromJunction="4way_13" toJunction="4way_8"/>
<trip id="368" depart="154.928" fromJunction="3way_22" toJunction="4way_18"/>
<trip id="369" depart="155.349" fromJunction="4way_12" toJunction="4way_18"/>
<trip id="370" depart="155.76999999999998" fromJunction="3way_19" toJunction="4way_16"/>
<trip id="371" depart="156.191" fromJunction="3way_9" toJunction="3way_14"/>
<trip id="372" depart="156.612" fromJunction="3way_23" toJunction="4way_13"/>
<trip id="373" depart="157.033" fromJunction="3way_10" toJunction="3way_15"/>
<trip id="374" depart="157.454" fromJunction="4way_17" toJunction="4way_12"/>
<trip id="375" depart="157.875" fromJunction="3way_21" toJunction="3way_3"/>
<trip id="376" depart="158.296" fromJunction="3way_9" toJunction="3way_3"/>
<trip id="377" depart="158.71699999999998" fromJunction="3way_2" toJunction="3way_23"/>
<trip id="378" depart="159.138" fromJunction="3way_3" toJunction="3way_21"/>
<trip id="379" depart="159.559" fromJunction="3way_19" toJunction="3way_5"/>