<?xml version="1.0" encoding="UTF-8"?>

<!-- generated on 2023-07-28 11:56:08 by Eclipse SUMO duarouter Version 1.12.0
<configuration xmlns:xsi="http://www.w3.org/2001/XMLSchema-instance" xsi:noNamespaceSchemaLocation="http://sumo.dlr.de/xsd/duarouterConfiguration.xsd">

    <input>
        <net-file value="sq.net.xml"/>
        <route-files value="sq.trips.xml"/>
        <junction-taz value="true"/>
    </input>

    <output>
        <output-file value="sq.rou.xml"/>
        <alternatives-output value="sq.rou.alt.xml"/>
    </output>

    <processing>
        <weights.random-factor value="1.2"/>
    </processing>

    <time>
        <begin value="0"/>
        <end value="7200"/>
    </time>

    <report>
        <verbose value="true"/>
    </report>

    <random_number>
        <seed value="5"/>
    </random_number>

</configuration>
-->

<routes xmlns:xsi="http://www.w3.org/2001/XMLSchema-instance" xsi:noNamespaceSchemaLocation="http://sumo.dlr.de/xsd/routes_file.xsd">
    <vehicle id="0" depart="0.00">
        <route edges="39_4way_20to4way_14 35_4way_14to4way_13"/>
    </vehicle>
    <vehicle id="1" depart="0.35">
        <route edges="36_4way_13to4way_19 46_4way_19to4way_25"/>
    </vehicle>
    <vehicle id="2" depart="0.70">
        <route edges="55_4way_8to4way_7 32_4way_7to3way_6 8_3way_6to3way_12 7_3way_12to3way_18"/>
    </vehicle>
    <vehicle id="3" depart="1.05">
        <route edges="34_4way_10to4way_9 56_4way_9to4way_8 55_4way_8to4way_7 32_4way_7to3way_6 8_3way_6to3way_12"/>
    </vehicle>
    <vehicle id="4" depart="1.40">
        <route edges="19_3way_24to4way_25 52_4way_25to4way_26 53_4way_26to4way_27 54_4way_27to4way_28 51_4way_28to4way_22"/>
    </vehicle>
    <vehicle id="5" depart="1.75">
        <route edges="37_4way_7to4way_13 35_4way_13to4way_14 38_4way_14to4way_15"/>
    </vehicle>
    <vehicle id="6" depart="2.11">
        <route edges="41_4way_16to4way_15 38_4way_15to4way_14 35_4way_14to4way_13 36_4way_13to4way_19"/>
    </vehicle>
    <vehicle id="7" depart="2.46">
        <route edges="42_4way_21to4way_15 43_4way_15to4way_9 23_4way_9to3way_3 14_3way_3to3way_2 1_3way_2to3way_1"/>
    </vehicle>
    <vehicle id="8" depart="2.81">
        <route edges="50_4way_27to4way_21 42_4way_21to4way_15 43_4way_15to4way_9"/>
    </vehicle>
    <vehicle id="9" depart="3.16">
        <route edges="42_4way_15to4way_21 50_4way_21to4way_27 54_4way_27to4way_28"/>
    </vehicle>
    <vehicle id="10" depart="3.51">
        <route edges="56_4way_9to4way_8 55_4way_8to4way_7 32_4way_7to3way_6 8_3way_6to3way_12"/>
    </vehicle>
    <vehicle id="11" depart="3.86">
        <route edges="56_4way_8to4way_9 34_4way_9to4way_10 31_4way_10to3way_4"/>
    </vehicle>
    <vehicle id="12" depart="4.21">
        <route edges="17_4way_22to3way_23 10_3way_23to3way_17 4_3way_17to3way_11"/>
    </vehicle>
    <vehicle id="13" depart="4.56">
        <route edges="13_3way_18to4way_19 36_4way_19to4way_13 37_4way_13to4way_7"/>
    </vehicle>
    <vehicle id="14" depart="4.91">
        <route edges="43_4way_9to4way_15 42_4way_15to4way_21 50_4way_21to4way_27 29_4way_27to3way_33 28_3way_33to3way_34"/>
    </vehicle>
    <vehicle id="15" depart="5.26">
        <route edges="13_4way_19to3way_18 7_3way_18to3way_12"/>
    </vehicle>
    <vehicle id="16" depart="5.61">
        <route edges="46_4way_25to4way_19 36_4way_19to4way_13 37_4way_13to4way_7 3_4way_7to3way_1"/>
    </vehicle>
    <vehicle id="17" depart="5.96">
        <route edges="38_4way_14to4way_15 41_4way_15to4way_16 44_4way_16to4way_22"/>
    </vehicle>
    <vehicle id="18" depart="6.31">
        <route edges="12_3way_18to3way_24 18_3way_24to3way_31"/>
    </vehicle>
    <vehicle id="19" depart="6.67">
        <route edges="15_3way_2to4way_8 40_4way_8to4way_14 39_4way_14to4way_20"/>
    </vehicle>
    <vehicle id="20" depart="7.02">
        <route edges="4_3way_11to3way_17 10_3way_17to3way_23"/>
    </vehicle>
    <vehicle id="21" depart="7.37">
        <route edges="24_3way_31to3way_32"/>
    </vehicle>
    <vehicle id="22" depart="7.72">
        <route edges="7_3way_12to3way_18 13_3way_18to4way_19"/>
    </vehicle>
    <vehicle id="23" depart="8.07">
        <route edges="31_3way_4to4way_10 33_4way_10to4way_16 44_4way_16to4way_22 51_4way_22to4way_28"/>
    </vehicle>
    <vehicle id="24" depart="8.42">
        <route edges="10_3way_17to3way_23"/>
    </vehicle>
    <vehicle id="25" depart="8.77">
        <route edges="30_3way_34to4way_28 51_4way_28to4way_22 44_4way_22to4way_16 33_4way_16to4way_10 34_4way_10to4way_9 56_4way_9to4way_8"/>
    </vehicle>
    <vehicle id="26" depart="9.12">
        <route edges="16_3way_29to3way_23 17_3way_23to4way_22 49_4way_22to4way_21 47_4way_21to4way_20 45_4way_20to4way_19 13_4way_19to3way_18 7_3way_18to3way_12"/>
    </vehicle>
    <vehicle id="27" depart="9.47">
        <route edges="31_3way_4to4way_10 33_4way_10to4way_16 11_4way_16to3way_17"/>
    </vehicle>
    <vehicle id="28" depart="9.82">
        <route edges="6_3way_11to4way_10 34_4way_10to4way_9 56_4way_9to4way_8 40_4way_8to4way_14"/>
    </vehicle>
    <vehicle id="29" depart="10.17">
        <route edges="24_3way_31to3way_32 26_3way_32to3way_33 28_3way_33to3way_34 20_3way_34to3way_29 16_3way_29to3way_23"/>
    </vehicle>
    <vehicle id="30" depart="10.52">
        <route edges="22_3way_4to3way_3 23_3way_3to4way_9 43_4way_9to4way_15 42_4way_15to4way_21"/>
    </vehicle>
    <vehicle id="31" depart="10.88">
        <route edges="22_3way_4to3way_3 23_3way_3to4way_9 43_4way_9to4way_15 42_4way_15to4way_21"/>
    </vehicle>
    <vehicle id="32" depart="11.23">
        <route edges="7_3way_12to3way_18 12_3way_18to3way_24 19_3way_24to4way_25 52_4way_25to4way_26 53_4way_26to4way_27 54_4way_27to4way_28"/>
    </vehicle>
    <vehicle id="33" depart="11.58">
        <route edges="52_4way_25to4way_26 53_4way_26to4way_27 54_4way_27to4way_28"/>
    </vehicle>
    <vehicle id="34" depart="11.93">
        <route edges="15_3way_2to4way_8 40_4way_8to4way_14 39_4way_14to4way_20 48_4way_20to4way_26"/>
    </vehicle>
    <vehicle id="35" depart="12.28">
        <route edges="22_3way_4to3way_3 23_3way_3to4way_9 43_4way_9to4way_15 42_4way_15to4way_21 50_4way_21to4way_27 29_4way_27to3way_33"/>
    </vehicle>
    <vehicle id="36" depart="12.63">
        <route edges="31_3way_4to4way_10 33_4way_10to4way_16 44_4way_16to4way_22 51_4way_22to4way_28 30_4way_28to3way_34 28_3way_34to3way_33"/>
    </vehicle>
    <vehicle id="37" depart="12.98">
        <route edges="12_3way_18to3way_24 18_3way_24to3way_31 24_3way_31to3way_32"/>
    </vehicle>
    <vehicle id="38" depart="13.33">
        <route edges="39_4way_20to4way_14 40_4way_14to4way_8 15_4way_8to3way_2 14_3way_2to3way_3"/>
    </vehicle>
    <vehicle id="39" depart="13.68">
        <route edges="30_3way_34to4way_28 51_4way_28to4way_22 49_4way_22to4way_21 47_4way_21to4way_20 45_4way_20to4way_19"/>
    </vehicle>
    <vehicle id="40" depart="14.03">
        <route edges="31_3way_4to4way_10 34_4way_10to4way_9 56_4way_9to4way_8 55_4way_8to4way_7"/>
    </vehicle>
    <vehicle id="41" depart="14.38">
        <route edges="41_4way_16to4way_15 38_4way_15to4way_14 35_4way_14to4way_13 36_4way_13to4way_19"/>
    </vehicle>
    <vehicle id="42" depart="14.73">
        <route edges="39_4way_14to4way_20 48_4way_20to4way_26 27_4way_26to3way_32"/>
    </vehicle>
    <vehicle id="43" depart="15.08">
        <route edges="47_4way_20to4way_21 49_4way_21to4way_22 17_4way_22to3way_23 10_3way_23to3way_17 4_3way_17to3way_11"/>
    </vehicle>
    <vehicle id="44" depart="15.44">
        <route edges="10_3way_17to3way_23 16_3way_23to3way_29 20_3way_29to3way_34 28_3way_34to3way_33"/>
    </vehicle>
    <vehicle id="45" depart="15.79">
        <route edges="3_3way_1to4way_7 37_4way_7to4way_13 36_4way_13to4way_19"/>
    </vehicle>
    <vehicle id="46" depart="16.14">
        <route edges="3_3way_1to4way_7 37_4way_7to4way_13 36_4way_13to4way_19 45_4way_19to4way_20 47_4way_20to4way_21"/>
    </vehicle>
    <vehicle id="47" depart="16.49">
        <route edges="30_3way_34to4way_28 51_4way_28to4way_22 44_4way_22to4way_16 41_4way_16to4way_15 38_4way_15to4way_14"/>
    </vehicle>
    <vehicle id="48" depart="16.84">
        <route edges="49_4way_22to4way_21 47_4way_21to4way_20 48_4way_20to4way_26"/>
    </vehicle>
    <vehicle id="49" depart="17.19">
        <route edges="46_4way_19to4way_25 52_4way_25to4way_26 53_4way_26to4way_27 54_4way_27to4way_28 21_4way_28to3way_29"/>
    </vehicle>
    <vehicle id="50" depart="17.54">
        <route edges="17_4way_22to3way_23 16_3way_23to3way_29"/>
    </vehicle>
    <vehicle id="51" depart="17.89">
        <route edges="50_4way_27to4way_21 42_4way_21to4way_15 38_4way_15to4way_14 35_4way_14to4way_13 9_4way_13to3way_12"/>
    </vehicle>
    <vehicle id="52" depart="18.24">
        <route edges="29_3way_33to4way_27 50_4way_27to4way_21 47_4way_21to4way_20"/>
    </vehicle>
    <vehicle id="53" depart="18.59">
        <route edges="19_3way_24to4way_25 52_4way_25to4way_26 53_4way_26to4way_27 50_4way_27to4way_21"/>
    </vehicle>
    <vehicle id="54" depart="18.94">
        <route edges="45_4way_19to4way_20 47_4way_20to4way_21 49_4way_21to4way_22 44_4way_22to4way_16 33_4way_16to4way_10"/>
    </vehicle>
    <vehicle id="55" depart="19.29">
        <route edges="47_4way_20to4way_21 49_4way_21to4way_22 44_4way_22to4way_16 33_4way_16to4way_10"/>
    </vehicle>
    <vehicle id="56" depart="19.65">
        <route edges="55_4way_7to4way_8 40_4way_8to4way_14 39_4way_14to4way_20 48_4way_20to4way_26"/>
    </vehicle>
    <vehicle id="57" depart="20.00">
        <route edges="40_4way_8to4way_14 39_4way_14to4way_20 47_4way_20to4way_21 49_4way_21to4way_22"/>
    </vehicle>
    <vehicle id="58" depart="20.35">
        <route edges="46_4way_25to4way_19 13_4way_19to3way_18"/>
    </vehicle>
    <vehicle id="59" depart="20.70">
        <route edges="29_3way_33to4way_27 50_4way_27to4way_21 42_4way_21to4way_15 43_4way_15to4way_9 23_4way_9to3way_3 14_3way_3to3way_2 1_3way_2to3way_1"/>
    </vehicle>
    <vehicle id="60" depart="21.05">
        <route edges="29_3way_33to4way_27 50_4way_27to4way_21 42_4way_21to4way_15 38_4way_15to4way_14"/>
    </vehicle>
    <vehicle id="61" depart="21.40">
        <route edges="12_3way_18to3way_24 19_3way_24to4way_25"/>
    </vehicle>
    <vehicle id="62" depart="21.75">
        <route edges="28_3way_33to3way_34 20_3way_34to3way_29 16_3way_29to3way_23 10_3way_23to3way_17 4_3way_17to3way_11"/>
    </vehicle>
    <vehicle id="63" depart="22.10">
        <route edges="55_4way_8to4way_7 37_4way_7to4way_13 36_4way_13to4way_19"/>
    </vehicle>
    <vehicle id="64" depart="22.45">
        <route edges="13_3way_18to4way_19 45_4way_19to4way_20 39_4way_20to4way_14 40_4way_14to4way_8"/>
    </vehicle>
    <vehicle id="65" depart="22.80">
        <route edges="24_3way_31to3way_32 26_3way_32to3way_33 28_3way_33to3way_34 30_3way_34to4way_28 51_4way_28to4way_22 44_4way_22to4way_16 33_4way_16to4way_10"/>
    </vehicle>
    <vehicle id="66" depart="23.15">
        <route edges="34_4way_10to4way_9 56_4way_9to4way_8 55_4way_8to4way_7 32_4way_7to3way_6 8_3way_6to3way_12 7_3way_12to3way_18"/>
    </vehicle>
    <vehicle id="67" depart="23.50">
        <route edges="47_4way_20to4way_21 42_4way_21to4way_15"/>
    </vehicle>
    <vehicle id="68" depart="23.85">
        <route edges="33_4way_16to4way_10 31_4way_10to3way_4"/>
    </vehicle>
    <vehicle id="69" depart="24.21">
        <route edges="51_4way_28to4way_22 49_4way_22to4way_21 47_4way_21to4way_20"/>
    </vehicle>
    <vehicle id="70" depart="24.56">
        <route edges="54_4way_27to4way_28 21_4way_28to3way_29 16_3way_29to3way_23 10_3way_23to3way_17 4_3way_17to3way_11"/>
    </vehicle>
    <vehicle id="71" depart="24.91">
        <route edges="52_4way_25to4way_26 53_4way_26to4way_27 54_4way_27to4way_28 21_4way_28to3way_29 16_3way_29to3way_23 10_3way_23to3way_17"/>
    </vehicle>
    <vehicle id="72" depart="25.26">
        <route edges="50_4way_27to4way_21 42_4way_21to4way_15 43_4way_15to4way_9 23_4way_9to3way_3 22_3way_3to3way_4"/>
    </vehicle>
    <vehicle id="73" depart="25.61">
        <route edges="45_4way_19to4way_20 47_4way_20to4way_21 42_4way_21to4way_15"/>
    </vehicle>
    <vehicle id="74" depart="25.96">
        <route edges="14_3way_3to3way_2 1_3way_2to3way_1 2_3way_1to3way_6 8_3way_6to3way_12 7_3way_12to3way_18"/>
    </vehicle>
    <vehicle id="75" depart="26.31">
        <route edges="7_3way_12to3way_18 13_3way_18to4way_19 45_4way_19to4way_20"/>
    </vehicle>
    <vehicle id="76" depart="26.66">
        <route edges="53_4way_27to4way_26"/>
    </vehicle>
    <vehicle id="77" depart="27.01">
        <route edges="54_4way_27to4way_28"/>
    </vehicle>
    <vehicle id="78" depart="27.36">
        <route edges="25_3way_31to4way_25 46_4way_25to4way_19 36_4way_19to4way_13 37_4way_13to4way_7 3_4way_7to3way_1"/>
    </vehicle>
    <vehicle id="79" depart="27.71">
        <route edges="11_3way_17to4way_16 41_4way_16to4way_15 38_4way_15to4way_14 39_4way_14to4way_20 48_4way_20to4way_26"/>
    </vehicle>
    <vehicle id="80" depart="28.06">
        <route edges="1_3way_2to3way_1 3_3way_1to4way_7"/>
    </vehicle>
    <vehicle id="81" depart="28.42">
        <route edges="3_3way_1to4way_7 37_4way_7to4way_13 36_4way_13to4way_19 45_4way_19to4way_20 47_4way_20to4way_21 49_4way_21to4way_22 17_4way_22to3way_23"/>
    </vehicle>
    <vehicle id="82" depart="28.77">
        <route edges="16_3way_29to3way_23 10_3way_23to3way_17 11_3way_17to4way_16 41_4way_16to4way_15"/>
    </vehicle>
    <vehicle id="83" depart="29.12">
        <route edges="44_4way_16to4way_22 51_4way_22to4way_28 30_4way_28to3way_34 28_3way_34to3way_33 26_3way_33to3way_32 24_3way_32to3way_31"/>
    </vehicle>
    <vehicle id="84" depart="29.47">
        <route edges="15_3way_2to4way_8 40_4way_8to4way_14 39_4way_14to4way_20"/>
    </vehicle>
    <vehicle id="85" depart="29.82">
        <route edges="52_4way_25to4way_26 53_4way_26to4way_27 54_4way_27to4way_28 21_4way_28to3way_29 16_3way_29to3way_23 10_3way_23to3way_17"/>
    </vehicle>
    <vehicle id="86" depart="30.17">
        <route edges="16_3way_29to3way_23 17_3way_23to4way_22 49_4way_22to4way_21 47_4way_21to4way_20 45_4way_20to4way_19"/>
    </vehicle>
    <vehicle id="87" depart="30.52">
        <route edges="52_4way_25to4way_26 53_4way_26to4way_27 54_4way_27to4way_28 51_4way_28to4way_22 44_4way_22to4way_16"/>
    </vehicle>
    <vehicle id="88" depart="30.87">
        <route edges="36_4way_19to4way_13"/>
    </vehicle>
    <vehicle id="89" depart="31.22">
        <route edges="29_3way_33to4way_27 53_4way_27to4way_26"/>
    </vehicle>
    <vehicle id="90" depart="31.57">
        <route edges="17_3way_23to4way_22 49_4way_22to4way_21 47_4way_21to4way_20 45_4way_20to4way_19 13_4way_19to3way_18 12_3way_18to3way_24"/>
    </vehicle>
    <vehicle id="91" depart="31.92">
        <route edges="17_4way_22to3way_23 10_3way_23to3way_17"/>
    </vehicle>
    <vehicle id="92" depart="32.27">
        <route edges="32_3way_6to4way_7 55_4way_7to4way_8 40_4way_8to4way_14 39_4way_14to4way_20 48_4way_20to4way_26"/>
    </vehicle>
    <vehicle id="93" depart="32.62">
        <route edges="20_3way_34to3way_29"/>
    </vehicle>
    <vehicle id="94" depart="32.98">
        <route edges="13_3way_18to4way_19 36_4way_19to4way_13 37_4way_13to4way_7 3_4way_7to3way_1 1_3way_1to3way_2"/>
    </vehicle>
    <vehicle id="95" depart="33.33">
        <route edges="48_4way_20to4way_26 27_4way_26to3way_32 26_3way_32to3way_33"/>
    </vehicle>
    <vehicle id="96" depart="33.68">
        <route edges="11_3way_17to4way_16 41_4way_16to4way_15 38_4way_15to4way_14 35_4way_14to4way_13 9_4way_13to3way_12 7_3way_12to3way_18 12_3way_18to3way_24"/>
    </vehicle>
    <vehicle id="97" depart="34.03">
        <route edges="14_3way_3to3way_2 1_3way_2to3way_1"/>
    </vehicle>
    <vehicle id="98" depart="34.38">
        <route edges="9_3way_12to4way_13 35_4way_13to4way_14"/>
    </vehicle>
    <vehicle id="99" depart="34.73">
        <route edges="34_4way_10to4way_9 56_4way_9to4way_8 55_4way_8to4way_7 37_4way_7to4way_13"/>
    </vehicle>
    <vehicle id="100" depart="35.08">
        <route edges="17_3way_23to4way_22 51_4way_22to4way_28"/>
    </vehicle>
    <vehicle id="101" depart="35.43">
        <route edges="30_3way_34to4way_28 51_4way_28to4way_22 44_4way_22to4way_16 41_4way_16to4way_15 38_4way_15to4way_14"/>
    </vehicle>
    <vehicle id="102" depart="35.78">
        <route edges="23_4way_9to3way_3 14_3way_3to3way_2 1_3way_2to3way_1"/>
    </vehicle>
    <vehicle id="103" depart="36.13">
        <route edges="18_3way_24to3way_31 24_3way_31to3way_32"/>
    </vehicle>
    <vehicle id="104" depart="36.48">
        <route edges="47_4way_21to4way_20 45_4way_20to4way_19"/>
    </vehicle>
    <vehicle id="105" depart="36.83">
        <route edges="50_4way_27to4way_21 42_4way_21to4way_15 43_4way_15to4way_9 56_4way_9to4way_8"/>
    </vehicle>
    <vehicle id="106" depart="37.19">
        <route edges="42_4way_15to4way_21 50_4way_21to4way_27 29_4way_27to3way_33 28_3way_33to3way_34"/>
    </vehicle>
    <vehicle id="107" depart="37.54">
        <route edges="17_4way_22to3way_23 10_3way_23to3way_17"/>
    </vehicle>
    <vehicle id="108" depart="37.89">
        <route edges="10_3way_23to3way_17 11_3way_17to4way_16 41_4way_16to4way_15 38_4way_15to4way_14"/>
    </vehicle>
    <vehicle id="109" depart="38.24">
        <route edges="53_4way_26to4way_27 54_4way_27to4way_28 51_4way_28to4way_22"/>
    </vehicle>
    <vehicle id="110" depart="38.59">
        <route edges="16_3way_23to3way_29 20_3way_29to3way_34"/>
    </vehicle>
    <vehicle id="111" depart="38.94">
        <route edges="3_3way_1to4way_7"/>
    </vehicle>
    <vehicle id="112" depart="39.29">
        <route edges="13_3way_18to4way_19 45_4way_19to4way_20 47_4way_20to4way_21 49_4way_21to4way_22 17_4way_22to3way_23"/>
    </vehicle>
    <vehicle id="113" depart="39.64">
        <route edges="7_3way_12to3way_18 12_3way_18to3way_24 18_3way_24to3way_31"/>
    </vehicle>
    <vehicle id="114" depart="39.99">
        <route edges="46_4way_19to4way_25 25_4way_25to3way_31 24_3way_31to3way_32 26_3way_32to3way_33 28_3way_33to3way_34"/>
    </vehicle>
    <vehicle id="115" depart="40.34">
        <route edges="22_3way_4to3way_3 23_3way_3to4way_9 43_4way_9to4way_15 42_4way_15to4way_21 50_4way_21to4way_27"/>
    </vehicle>
    <vehicle id="116" depart="40.69">
        <route edges="6_3way_11to4way_10 34_4way_10to4way_9 56_4way_9to4way_8 55_4way_8to4way_7"/>
    </vehicle>
    <vehicle id="117" depart="41.04">
        <route edges="19_3way_24to4way_25 52_4way_25to4way_26 48_4way_26to4way_20"/>
    </vehicle>
    <vehicle id="118" depart="41.39">
        <route edges="11_3way_17to4way_16 41_4way_16to4way_15 38_4way_15to4way_14 35_4way_14to4way_13 36_4way_13to4way_19"/>
    </vehicle>
    <vehicle id="119" depart="41.75">
        <route edges="32_3way_6to4way_7 55_4way_7to4way_8 56_4way_8to4way_9 34_4way_9to4way_10 6_4way_10to3way_11"/>
    </vehicle>
    <vehicle id="120" depart="42.10">
        <route edges="49_4way_22to4way_21 47_4way_21to4way_20 45_4way_20to4way_19 46_4way_19to4way_25 25_4way_25to3way_31"/>
    </vehicle>
    <vehicle id="121" depart="42.45">
        <route edges="53_4way_26to4way_27 50_4way_27to4way_21 42_4way_21to4way_15 43_4way_15to4way_9"/>
    </vehicle>
    <vehicle id="122" depart="42.80">
        <route edges="23_3way_3to4way_9 34_4way_9to4way_10"/>
    </vehicle>
    <vehicle id="123" depart="43.15">
        <route edges="36_4way_19to4way_13"/>
    </vehicle>
    <vehicle id="124" depart="43.50">
        <route edges="28_3way_33to3way_34 30_3way_34to4way_28 51_4way_28to4way_22"/>
    </vehicle>
    <vehicle id="125" depart="43.85">
        <route edges="31_3way_4to4way_10 33_4way_10to4way_16 44_4way_16to4way_22 51_4way_22to4way_28 21_4way_28to3way_29"/>
    </vehicle>
    <vehicle id="126" depart="44.20">
        <route edges="33_4way_16to4way_10 31_4way_10to3way_4 22_3way_4to3way_3 14_3way_3to3way_2 1_3way_2to3way_1"/>
    </vehicle>
    <vehicle id="127" depart="44.55">
        <route edges="38_4way_15to4way_14"/>
    </vehicle>
    <vehicle id="128" depart="44.90">
        <route edges="46_4way_19to4way_25 25_4way_25to3way_31 24_3way_31to3way_32 26_3way_32to3way_33"/>
    </vehicle>
    <vehicle id="129" depart="45.25">
        <route edges="2_3way_6to3way_1 1_3way_1to3way_2 14_3way_2to3way_3"/>
    </vehicle>
    <vehicle id="130" depart="45.60">
        <route edges="33_4way_10to4way_16 44_4way_16to4way_22 51_4way_22to4way_28"/>
    </vehicle>
    <vehicle id="131" depart="45.96">
        <route edges="49_4way_22to4way_21 47_4way_21to4way_20 48_4way_20to4way_26 27_4way_26to3way_32"/>
    </vehicle>
    <vehicle id="132" depart="46.31">
        <route edges="51_4way_22to4way_28 21_4way_28to3way_29"/>
    </vehicle>
    <vehicle id="133" depart="46.66">
        <route edges="42_4way_15to4way_21 49_4way_21to4way_22"/>
    </vehicle>
    <vehicle id="134" depart="47.01">
        <route edges="50_4way_27to4way_21 42_4way_21to4way_15 43_4way_15to4way_9 56_4way_9to4way_8"/>
    </vehicle>
    <vehicle id="135" depart="47.36">
        <route edges="29_4way_27to3way_33"/>
    </vehicle>
    <vehicle id="136" depart="47.71">
        <route edges="3_3way_1to4way_7 37_4way_7to4way_13 36_4way_13to4way_19 46_4way_19to4way_25"/>
    </vehicle>
    <vehicle id="137" depart="48.06">
        <route edges="4_3way_11to3way_17 10_3way_17to3way_23 16_3way_23to3way_29 20_3way_29to3way_34 28_3way_34to3way_33 26_3way_33to3way_32 24_3way_32to3way_31"/>
    </vehicle>
    <vehicle id="138" depart="48.41">
        <route edges="8_3way_6to3way_12 7_3way_12to3way_18 12_3way_18to3way_24 19_3way_24to4way_25 52_4way_25to4way_26 53_4way_26to4way_27 54_4way_27to4way_28"/>
    </vehicle>
    <vehicle id="139" depart="48.76">
        <route edges="55_4way_8to4way_7 32_4way_7to3way_6"/>
    </vehicle>
    <vehicle id="140" depart="49.11">
        <route edges="6_3way_11to4way_10 34_4way_10to4way_9 56_4way_9to4way_8 55_4way_8to4way_7 37_4way_7to4way_13 36_4way_13to4way_19 46_4way_19to4way_25 25_4way_25to3way_31"/>
    </vehicle>
    <vehicle id="141" depart="49.46">
        <route edges="17_3way_23to4way_22 49_4way_22to4way_21"/>
    </vehicle>
    <vehicle id="142" depart="49.81">
        <route edges="16_3way_29to3way_23 10_3way_23to3way_17 4_3way_17to3way_11 6_3way_11to4way_10 34_4way_10to4way_9 56_4way_9to4way_8 55_4way_8to4way_7"/>
    </vehicle>
    <vehicle id="143" depart="50.16">
        <route edges="54_4way_27to4way_28 51_4way_28to4way_22 44_4way_22to4way_16 33_4way_16to4way_10 31_4way_10to3way_4"/>
    </vehicle>
    <vehicle id="144" depart="50.52">
        <route edges="51_4way_22to4way_28"/>
    </vehicle>
    <vehicle id="145" depart="50.87">
        <route edges="43_4way_9to4way_15 41_4way_15to4way_16"/>
    </vehicle>
    <vehicle id="146" depart="51.22">
        <route edges="14_3way_3to3way_2 15_3way_2to4way_8 40_4way_8to4way_14 39_4way_14to4way_20 48_4way_20to4way_26 27_4way_26to3way_32"/>
    </vehicle>
    <vehicle id="147" depart="51.57">
        <route edges="21_3way_29to4way_28 54_4way_28to4way_27 53_4way_27to4way_26 52_4way_26to4way_25 19_4way_25to3way_24 12_3way_24to3way_18"/>
    </vehicle>
    <vehicle id="148" depart="51.92">
        <route edges="15_3way_2to4way_8 56_4way_8to4way_9 34_4way_9to4way_10 6_4way_10to3way_11"/>
    </vehicle>
    <vehicle id="149" depart="52.27">
        <route edges="3_3way_1to4way_7 37_4way_7to4way_13 36_4way_13to4way_19 46_4way_19to4way_25 52_4way_25to4way_26"/>
    </vehicle>
    <vehicle id="150" depart="52.62">
        <route edges="6_3way_11to4way_10 34_4way_10to4way_9"/>
    </vehicle>
    <vehicle id="151" depart="52.97">
        <route edges="21_3way_29to4way_28 54_4way_28to4way_27 50_4way_27to4way_21 42_4way_21to4way_15 38_4way_15to4way_14"/>
    </vehicle>
    <vehicle id="152" depart="53.32">
        <route edges="9_4way_13to3way_12 7_3way_12to3way_18"/>
    </vehicle>
    <vehicle id="153" depart="53.67">
        <route edges="53_4way_26to4way_27"/>
    </vehicle>
    <vehicle id="154" depart="54.02">
        <route edges="4_3way_11to3way_17 10_3way_17to3way_23 16_3way_23to3way_29 20_3way_29to3way_34"/>
    </vehicle>
    <vehicle id="155" depart="54.37">
        <route edges="29_3way_33to4way_27 50_4way_27to4way_21 42_4way_21to4way_15 43_4way_15to4way_9 23_4way_9to3way_3 14_3way_3to3way_2"/>
    </vehicle>
    <vehicle id="156" depart="54.73">
        <route edges="7_3way_12to3way_18 12_3way_18to3way_24 18_3way_24to3way_31 24_3way_31to3way_32 26_3way_32to3way_33 28_3way_33to3way_34"/>
    </vehicle>
    <vehicle id="157" depart="55.08">
        <route edges="39_4way_20to4way_14"/>
    </vehicle>
    <vehicle id="158" depart="55.43">
        <route edges="18_3way_24to3way_31 24_3way_31to3way_32 26_3way_32to3way_33"/>
    </vehicle>
    <vehicle id="159" depart="55.78">
        <route edges="41_4way_15to4way_16 11_4way_16to3way_17"/>
    </vehicle>
    <vehicle id="160" depart="56.13">
        <route edges="39_4way_20to4way_14 40_4way_14to4way_8 15_4way_8to3way_2"/>
    </vehicle>
    <vehicle id="161" depart="56.48">
        <route edges="24_3way_31to3way_32 26_3way_32to3way_33 28_3way_33to3way_34"/>
    </vehicle>
    <vehicle id="162" depart="56.83">
        <route edges="30_3way_34to4way_28 51_4way_28to4way_22 49_4way_22to4way_21 47_4way_21to4way_20 45_4way_20to4way_19"/>
    </vehicle>
    <vehicle id="163" depart="57.18">
        <route edges="17_3way_23to4way_22 49_4way_22to4way_21 47_4way_21to4way_20 45_4way_20to4way_19 46_4way_19to4way_25 25_4way_25to3way_31"/>
    </vehicle>
    <vehicle id="164" depart="57.53">
        <route edges="1_3way_2to3way_1 2_3way_1to3way_6 8_3way_6to3way_12"/>
    </vehicle>
    <vehicle id="165" depart="57.88">
        <route edges="23_3way_3to4way_9 43_4way_9to4way_15"/>
    </vehicle>
    <vehicle id="166" depart="58.23">
        <route edges="29_3way_33to4way_27 50_4way_27to4way_21 42_4way_21to4way_15 43_4way_15to4way_9 56_4way_9to4way_8 55_4way_8to4way_7"/>
    </vehicle>
    <vehicle id="167" depart="58.58">
        <route edges="49_4way_22to4way_21 47_4way_21to4way_20 45_4way_20to4way_19"/>
    </vehicle>
    <vehicle id="168" depart="58.93">
        <route edges="15_3way_2to4way_8"/>
    </vehicle>
    <vehicle id="169" depart="59.29">
        <route edges="32_4way_7to3way_6 8_3way_6to3way_12 7_3way_12to3way_18"/>
    </vehicle>
    <vehicle id="170" depart="59.64">
        <route edges="35_4way_14to4way_13"/>
    </vehicle>
    <vehicle id="171" depart="59.99">
        <route edges="6_3way_11to4way_10 33_4way_10to4way_16 44_4way_16to4way_22 51_4way_22to4way_28 30_4way_28to3way_34"/>
    </vehicle>
    <vehicle id="172" depart="60.34">
        <route edges="49_4way_22to4way_21 47_4way_21to4way_20 45_4way_20to4way_19 13_4way_19to3way_18 12_3way_18to3way_24"/>
    </vehicle>
    <vehicle id="173" depart="60.69">
        <route edges="33_4way_10to4way_16 11_4way_16to3way_17"/>
    </vehicle>
    <vehicle id="174" depart="61.04">
        <route edges="9_3way_12to4way_13"/>
    </vehicle>
    <vehicle id="175" depart="61.39">
        <route edges="9_3way_12to4way_13 35_4way_13to4way_14 38_4way_14to4way_15 41_4way_15to4way_16 33_4way_16to4way_10"/>
    </vehicle>
    <vehicle id="176" depart="61.74">
        <route edges="19_3way_24to4way_25 52_4way_25to4way_26"/>
    </vehicle>
    <vehicle id="177" depart="62.09">
        <route edges="47_4way_20to4way_21 49_4way_21to4way_22 44_4way_22to4way_16 33_4way_16to4way_10"/>
    </vehicle>
    <vehicle id="178" depart="62.44">
        <route edges="27_3way_32to4way_26 48_4way_26to4way_20"/>
    </vehicle>
    <vehicle id="179" depart="62.79">
        <route edges="56_4way_8to4way_9"/>
    </vehicle>
    <vehicle id="180" depart="63.14">
        <route edges="10_3way_17to3way_23 16_3way_23to3way_29"/>
    </vehicle>
    <vehicle id="181" depart="63.50">
        <route edges="44_4way_22to4way_16 41_4way_16to4way_15"/>
    </vehicle>
    <vehicle id="182" depart="63.85">
        <route edges="36_4way_19to4way_13 9_4way_13to3way_12"/>
    </vehicle>
    <vehicle id="183" depart="64.20">
        <route edges="7_3way_12to3way_18 12_3way_18to3way_24 19_3way_24to4way_25 52_4way_25to4way_26 53_4way_26to4way_27"/>
    </vehicle>
    <vehicle id="184" depart="64.55">
        <route edges="45_4way_19to4way_20 47_4way_20to4way_21 49_4way_21to4way_22"/>
    </vehicle>
    <vehicle id="185" depart="64.90">
        <route edges="41_4way_16to4way_15 42_4way_15to4way_21"/>
    </vehicle>
    <vehicle id="186" depart="65.25">
        <route edges="11_3way_17to4way_16 41_4way_16to4way_15 42_4way_15to4way_21"/>
    </vehicle>
    <vehicle id="187" depart="65.60">
        <route edges="19_3way_24to4way_25 52_4way_25to4way_26 48_4way_26to4way_20 39_4way_20to4way_14 40_4way_14to4way_8"/>
    </vehicle>
    <vehicle id="188" depart="65.95">
        <route edges="13_3way_18to4way_19 45_4way_19to4way_20 47_4way_20to4way_21 42_4way_21to4way_15 43_4way_15to4way_9 23_4way_9to3way_3"/>
    </vehicle>
    <vehicle id="189" depart="66.30">
        <route edges="29_4way_27to3way_33 28_3way_33to3way_34"/>
    </vehicle>
    <vehicle id="190" depart="66.65">
        <route edges="44_4way_22to4way_16 33_4way_16to4way_10 31_4way_10to3way_4 22_3way_4to3way_3 14_3way_3to3way_2"/>
    </vehicle>
    <vehicle id="191" depart="67.00">
        <route edges="4_3way_17to3way_11 5_3way_11to3way_4 22_3way_4to3way_3 14_3way_3to3way_2 1_3way_2to3way_1"/>
    </vehicle>
    <vehicle id="192" depart="67.35">
        <route edges="41_4way_16to4way_15 38_4way_15to4way_14 35_4way_14to4way_13 9_4way_13to3way_12 7_3way_12to3way_18 12_3way_18to3way_24"/>
    </vehicle>
    <vehicle id="193" depart="67.70">
        <route edges="44_4way_22to4way_16 33_4way_16to4way_10 31_4way_10to3way_4"/>
    </vehicle>
    <vehicle id="194" depart="68.06">