<routes xmlns:xsi="http://www.w3.org/2001/XMLSchema-instance" xsi:noNamespaceSchemaLocation="http://sumo.dlr.de/xsd/routes_file.xsd">
<trip id="0" depart="0.0" fromJunction="4way_55" toJunction="4way_53"/>
<trip id="1" depart="0.3076" fromJunction="4way_53" toJunction="4way_24"/>
<trip id="2" depart="0.6152" fromJunction="4way_74" toJunction="4way_12"/>
<trip id="3" depart="0.9228" fromJunction="4way_67" toJunction="4way_32"/>
<trip id="4" depart="1.2304" fromJunction="4way_51" toJunction="4way_58"/>
<trip id="5" depart="1.5379999999999998" fromJunction="4way_33" toJunction="4way_56"/>
<trip id="6" depart="1.8456" fromJunction="4way_18" toJunction="4way_73"/>
<trip id="7" depart="2.1532" fromJunction="3way_19" toJunction="3way_7"/>
<trip id="8" depart="2.4608" fromJunction="4way_86" toJunction="3way_2"/>
<trip id="9" depart="2.7683999999999997" fromJunction="4way_47" toJunction="4way_36"/>
<trip id="10" depart="3.0759999999999996" fromJunction="4way_56" toJunction="4way_68"/>
<trip id="11" depart="3.3836" fromJunction="4way_36" toJunction="4way_52"/>
<trip id="12" depart="3.6912" fromJunction="4way_64" toJunction="3way_49"/>
<trip id="13" depart="3.9987999999999997" fromJunction="4way_38" toJunction="3way_69"/>
<trip id="14" depart="4.3064" fromJunction="4way_81" toJunction="4way_33"/>
<trip id="15" depart="4.614" fromJunction="4way_36" toJunction="3way_70"/>
<trip id="16" depart="4.9216" fromJunction="4way_73" toJunction="4way_42"/>
<trip id="17" depart="5.2292" fromJunction="4way_44" toJunction="3way_2"/>
<trip id="18" depart="5.5367999999999995" fromJunction="4way_44" toJunction="4way_34"/>
<trip id="19" depart="5.844399999999999" fromJunction="4way_25" toJunction="4way_38"/>
<trip id="20" depart="6.151999999999999" fromJunction="4way_22" toJunction="4way_31"/>
<trip id="21" depart="6.4596" fromJunction="3way_6" toJunction="4way_35"/>
<trip id="22" depart="6.7672" fromJunction="3way_59" toJunction="3way_94"/>
<trip id="23" depart="7.0748" fromJunction="4way_31" toJunction="3way_20"/>
<trip id="24" depart="7.3824" fromJunction="4way_32" toJunction="4way_73"/>
<trip id="25" depart="7.6899999999999995" fromJunction="3way_29" toJunction="4way_78"/>
<trip id="26" depart="7.997599999999999" fromJunction="3way_89" toJunction="3way_94"/>
<trip id="27" depart="8.3052" fromJunction="3way_80" toJunction="4way_74"/>
<trip id="28" depart="8.6128" fromJunction="3way_91" toJunction="4way_52"/>
<trip id="29" depart="8.920399999999999" fromJunction="3way_39" toJunction="3way_89"/>
<trip id="30" depart="9.228" fromJunction="3way_69" toJunction="4way_84"/>
<trip id="31" depart="9.535599999999999" fromJunction="4way_41" toJunction="3way_96"/>
<trip id="32" depart="9.8432" fromJunction="3way_29" toJunction="4way_76"/>
<trip id="33" depart="10.1508" fromJunction="3way_29" toJunction="4way_17"/>
<trip id="34" depart="10.4584" fromJunction="4way_52" toJunction="4way_68"/>
<trip id="35" depart="10.766" fromJunction="4way_34" toJunction="4way_68"/>
<trip id="36" depart="11.073599999999999" fromJunction="3way_4" toJunction="4way_75"/>
<trip id="37" depart="11.3812" fromJunction="3way_49" toJunction="3way_50"/>
<trip id="38" depart="11.688799999999999" fromJunction="3way_49" toJunction="3way_40"/>
<trip id="39" depart="11.9964" fromJunction="4way_81" toJunction="3way_20"/>
<trip id="40" depart="12.303999999999998" fromJunction="4way_35" toJunction="3way_7"/>
<trip id="41" depart="12.6116" fromJunction="3way_70" toJunction="4way_73"/>
<trip id="42" depart="12.9192" fromJunction="3way_29" toJunction="4way_33"/>
<trip id="43" depart="13.226799999999999" fromJunction="4way_28" toJunction="4way_83"/>
<trip id="44" depart="13.5344" fromJunction="4way_15" toJunction="3way_20"/>
<trip id="45" depart="13.841999999999999" fromJunction="4way_55" toJunction="3way_59"/>
<trip id="46" depart="14.1496" fromJunction="3way_97" toJunction="3way_50"/>
<trip id="47" depart="14.457199999999998" fromJunction="3way_2" toJunction="4way_14"/>
<trip id="48" depart="14.7648" fromJunction="3way_1" toJunction="4way_86"/>
<trip id="49" depart="15.0724" fromJunction="3way_70" toJunction="4way_25"/>
<trip id="50" depart="15.379999999999999" fromJunction="4way_58" toJunction="4way_75"/>
<trip id="51" depart="15.6876" fromJunction="4way_83" toJunction="3way_91"/>
<trip id="52" depart="15.995199999999999" fromJunction="4way_73" toJunction="4way_14"/>
<trip id="53" depart="16.302799999999998" fromJunction="4way_48" toJunction="3way_93"/>
<trip id="54" depart="16.6104" fromJunction="4way_27" toJunction="4way_32"/>
<trip id="55" depart="16.918" fromJunction="3way_40" toJunction="4way_45"/>
<trip id="56" depart="17.2256" fromJunction="4way_71" toJunction="4way_76"/>
<trip id="57" depart="17.5332" fromJunction="4way_83" toJunction="4way_57"/>
<trip id="58" depart="17.840799999999998" fromJunction="4way_35" toJunction="4way_57"/>
<trip id="59" depart="18.1484" fromJunction="4way_13" toJunction="4way_65"/>
<trip id="60" depart="18.456" fromJunction="4way_64" toJunction="4way_48"/>
<trip id="61" depart="18.7636" fromJunction="4way_34" toJunction="4way_12"/>
<trip id="62" depart="19.071199999999997" fromJunction="3way_40" toJunction="3way_2"/>
<trip id="63" depart="19.3788" fromJunction="3way_50" toJunction="4way_84"/>
<trip id="64" depart="19.6864" fromJunction="4way_22" toJunction="4way_44"/>
<trip id="65" depart="19.994" fromJunction="3way_40" toJunction="3way_69"/>
<trip id="66" depart="20.3016" fromJunction="4way_14" toJunction="4way_73"/>
<trip id="67" depart="20.609199999999998" fromJunction="4way_74" toJunction="4way_83"/>
<trip id="68" depart="20.9168" fromJunction="4way_22" toJunction="4way_74"/>
<trip id="69" depart="21.2244" fromJunction="4way_41" toJunction="4way_77"/>
<trip id="70" depart="21.532" fromJunction="4way_67" toJunction="4way_22"/>
<trip id="71" depart="21.839599999999997" fromJunction="4way_45" toJunction="4way_66"/>
<trip id="72" depart="22.147199999999998" fromJunction="4way_18" toJunction="3way_29"/>
<trip id="73" depart="22.4548" fromJunction="4way_88" toJunction="4way_55"/>
<trip id="74" depart="22.7624" fromJunction="4way_47" toJunction="3way_79"/>
<trip id="75" depart="23.07" fromJunction="4way_44" toJunction="3way_89"/>
<trip id="76" depart="23.377599999999997" fromJunction="4way_27" toJunction="3way_49"/>
<trip id="77" depart="23.6852" fromJunction="4way_73" toJunction="4way_66"/>
<trip id="78" depart="23.9928" fromJunction="3way_7" toJunction="4way_81"/>
<trip id="79" depart="24.3004" fromJunction="4way_42" toJunction="4way_35"/>
<trip id="80" depart="24.607999999999997" fromJunction="4way_47" toJunction="4way_65"/>
<trip id="81" depart="24.915599999999998" fromJunction="4way_37" toJunction="4way_68"/>
<trip id="82" depart="25.2232" fromJunction="4way_31" toJunction="3way_2"/>
<trip id="83" depart="25.5308" fromJunction="3way_98" toJunction="4way_75"/>
<trip id="84" depart="25.8384" fromJunction="3way_6" toJunction="4way_33"/>
<trip id="85" depart="26.145999999999997" fromJunction="3way_2" toJunction="3way_95"/>
<trip id="86" depart="26.453599999999998" fromJunction="3way_93" toJunction="4way_56"/>
<trip id="87" depart="26.7612" fromJunction="4way_28" toJunction="4way_21"/>
<trip id="88" depart="27.0688" fromJunction="3way_4" toJunction="4way_45"/>
<trip id="89" depart="27.3764" fromJunction="4way_44" toJunction="3way_89"/>
<trip id="90" depart="27.683999999999997" fromJunction="3way_92" toJunction="4way_83"/>
<trip id="91" depart="27.9916" fromJunction="4way_34" toJunction="4way_28"/>
<trip id="92" depart="28.2992" fromJunction="4way_14" toJunction="4way_43"/>
<trip id="93" depart="28.6068" fromJunction="3way_30" toJunction="4way_75"/>
<trip id="94" depart="28.914399999999997" fromJunction="3way_94" toJunction="4way_71"/>
<trip id="95" depart="29.221999999999998" fromJunction="4way_38" toJunction="3way_97"/>
<trip id="96" depart="29.5296" fromJunction="4way_82" toJunction="4way_75"/>
<trip id="97" depart="29.8372" fromJunction="3way_80" toJunction="3way_93"/>
<trip id="98" depart="30.1448" fromJunction="4way_22" toJunction="3way_6"/>
<trip id="99" depart="30.452399999999997" fromJunction="4way_35" toJunction="3way_30"/>
<trip id="100" depart="30.759999999999998" fromJunction="3way_97" toJunction="4way_51"/>
<trip id="101" depart="31.0676" fromJunction="3way_7" toJunction="3way_3"/>
<trip id="102" depart="31.3752" fromJunction="4way_42" toJunction="4way_25"/>
<trip id="103" depart="31.682799999999997" fromJunction="4way_77" toJunction="4way_43"/>
<trip id="104" depart="31.990399999999998" fromJunction="3way_94" toJunction="4way_88"/>
<trip id="105" depart="32.298" fromJunction="3way_70" toJunction="4way_84"/>
<trip id="106" depart="32.605599999999995" fromJunction="4way_16" toJunction="3way_2"/>
<trip id="107" depart="32.913199999999996" fromJunction="4way_51" toJunction="3way_20"/>
<trip id="108" depart="33.2208" fromJunction="4way_86" toJunction="4way_14"/>
<trip id="109" depart="33.5284" fromJunction="4way_47" toJunction="4way_54"/>
<trip id="110" depart="33.836" fromJunction="4way_56" toJunction="3way_60"/>
<trip id="111" depart="34.1436" fromJunction="4way_48" toJunction="3way_97"/>
<trip id="112" depart="34.4512" fromJunction="3way_94" toJunction="4way_25"/>
<trip id="113" depart="34.7588" fromJunction="4way_75" toJunction="4way_38"/>
<trip id="114" depart="35.0664" fromJunction="3way_94" toJunction="3way_80"/>
<trip id="115" depart="35.373999999999995" fromJunction="3way_3" toJunction="4way_23"/>
<trip id="116" depart="35.681599999999996" fromJunction="4way_12" toJunction="3way_95"/>
<trip id="117" depart="35.9892" fromJunction="4way_52" toJunction="4way_41"/>
<trip id="118" depart="36.2968" fromJunction="4way_14" toJunction="3way_60"/>
<trip id="119" depart="36.6044" fromJunction="3way_49" toJunction="4way_37"/>
<trip id="120" depart="36.912" fromJunction="3way_59" toJunction="4way_23"/>
<trip id="121" depart="37.2196" fromJunction="4way_71" toJunction="4way_55"/>
<trip id="122" depart="37.5272" fromJunction="3way_97" toJunction="4way_73"/>
<trip id="123" depart="37.8348" fromJunction="4way_72" toJunction="3way_69"/>
<trip id="124" depart="38.142399999999995" fromJunction="4way_38" toJunction="4way_31"/>
<trip id="125" depart="38.449999999999996" fromJunction="4way_85" toJunction="4way_26"/>
<trip id="126" depart="38.7576" fromJunction="3way_19" toJunction="4way_77"/>
<trip id="127" depart="39.0652" fromJunction="4way_14" toJunction="4way_63"/>
<trip id="128" depart="39.3728" fromJunction="3way_40" toJunction="4way_58"/>
<trip id="129" depart="39.6804" fromJunction="3way_29" toJunction="3way_91"/>
<trip id="130" depart="39.988" fromJunction="4way_28" toJunction="3way_2"/>
<trip id="131" depart="40.2956" fromJunction="4way_46" toJunction="4way_15"/>
<trip id="132" depart="40.6032" fromJunction="4way_14" toJunction="3way_50"/>
<trip id="133" depart="40.910799999999995" fromJunction="4way_72" toJunction="3way_7"/>
<trip id="134" depart="41.218399999999995" fromJunction="4way_57" toJunction="4way_68"/>
<trip id="135" depart="41.525999999999996" fromJunction="4way_58" toJunction="4way_11"/>
<trip id="136" depart="41.8336" fromJunction="4way_48" toJunction="3way_92"/>
<trip id="137" depart="42.1412" fromJunction="4way_56" toJunction="4way_38"/>
<trip id="138" depart="42.4488" fromJunction="4way_47" toJunction="4way_54"/>
<trip id="139" depart="42.7564" fromJunction="4way_27" toJunction="3way_40"/>
<trip id="140" depart="43.064" fromJunction="3way_2" toJunction="4way_44"/>
<trip id="141" depart="43.3716" fromJunction="3way_79" toJunction="4way_21"/>
<trip id="142" depart="43.679199999999994" fromJunction="4way_62" toJunction="4way_78"/>
<trip id="143" depart="43.986799999999995" fromJunction="4way_64" toJunction="4way_82"/>
<trip id="144" depart="44.294399999999996" fromJunction="3way_69" toJunction="4way_41"/>
<trip id="145" depart="44.602" fromJunction="3way_96" toJunction="4way_76"/>
<trip id="146" depart="44.9096" fromJunction="3way_93" toJunction="4way_23"/>
<trip id="147" depart="45.2172" fromJunction="4way_37" toJunction="3way_29"/>
<trip id="148" depart="45.5248" fromJunction="4way_58" toJunction="4way_68"/>
<trip id="149" depart="45.8324" fromJunction="4way_36" toJunction="4way_87"/>
<trip id="150" depart="46.14" fromJunction="3way_8" toJunction="3way_10"/>
<trip id="151" depart="46.447599999999994" fromJunction="3way_92" toJunction="4way_81"/>
<trip id="152" depart="46.755199999999995" fromJunction="3way_6" toJunction="3way_59"/>
<trip id="153" depart="47.062799999999996" fromJunction="3way_2" toJunction="4way_65"/>
<trip id="154" depart="47.3704" fromJunction="3way_79" toJunction="4way_26"/>
<trip id="155" depart="47.678" fromJunction="3way_19" toJunction="3way_8"/>
<trip id="156" depart="47.9856" fromJunction="3way_91" toJunction="4way_15"/>
<trip id="157" depart="48.2932" fromJunction="4way_63" toJunction="4way_12"/>
<trip id="158" depart="48.6008" fromJunction="4way_65" toJunction="4way_37"/>
<trip id="159" depart="48.9084" fromJunction="3way_59" toJunction="3way_70"/>
<trip id="160" depart="49.215999999999994" fromJunction="3way_40" toJunction="3way_6"/>
<trip id="161" depart="49.523599999999995" fromJunction="4way_42" toJunction="3way_70"/>
<trip id="162" depart="49.831199999999995" fromJunction="4way_35" toJunction="4way_25"/>
<trip id="163" depart="50.138799999999996" fromJunction="4way_51" toJunction="3way_50"/>
<trip id="164" depart="50.4464" fromJunction="4way_46" toJunction="3way_97"/>
<trip id="165" depart="50.754" fromJunction="4way_35" toJunction="3way_6"/>
<trip id="166" depart="51.0616" fromJunction="4way_41" toJunction="3way_80"/>
<trip id="167" depart="51.3692" fromJunction="3way_60" toJunction="4way_14"/>
<trip id="168" depart="51.6768" fromJunction="3way_96" toJunction="4way_41"/>
<trip id="169" depart="51.9844" fromJunction="3way_5" toJunction="4way_52"/>
<trip id="170" depart="52.291999999999994" fromJunction="3way_8" toJunction="4way_56"/>
<trip id="171" depart="52.599599999999995" fromJunction="3way_30" toJunction="4way_23"/>
<trip id="172" depart="52.907199999999996" fromJunction="4way_58" toJunction="4way_83"/>
<trip id="173" depart="53.2148" fromJunction="3way_4" toJunction="4way_64"/>
<trip id="174" depart="53.5224" fromJunction="4way_13" toJunction="4way_22"/>
<trip id="175" depart="53.83" fromJunction="4way_25" toJunction="4way_43"/>
<trip id="176" depart="54.1376" fromJunction="3way_59" toJunction="3way_60"/>
<trip id="177" depart="54.4452" fromJunction="4way_48" toJunction="4way_61"/>
<trip id="178" depart="54.7528" fromJunction="4way_77" toJunction="3way_97"/>
<trip id="179" depart="55.060399999999994" fromJunction="4way_42" toJunction="4way_53"/>
<trip id="180" depart="55.367999999999995" fromJunction="4way_52" toJunction="4way_57"/>
<trip id="181" depart="55.675599999999996" fromJunction="4way_71" toJunction="4way_65"/>
<trip id="182" depart="55.9832" fromJunction="4way_35" toJunction="4way_77"/>
<trip id="183" depart="56.2908" fromJunction="3way_10" toJunction="4way_45"/>
<trip id="184" depart="56.5984" fromJunction="4way_64" toJunction="4way_16"/>
<trip id="185" depart="56.906" fromJunction="3way_89" toJunction="3way_91"/>
<trip id="186" depart="57.2136" fromJunction="4way_58" toJunction="4way_56"/>
<trip id="187" depart="57.5212" fromJunction="4way_14" toJunction="4way_42"/>
<trip id="188" depart="57.828799999999994" fromJunction="4way_42" toJunction="4way_37"/>
<trip id="189" depart="58.136399999999995" fromJunction="4way_83" toJunction="4way_48"/>
<trip id="190" depart="58.443999999999996" fromJunction="4way_87" toJunction="4way_76"/>
<trip id="191" depart="58.751599999999996" fromJunction="3way_89" toJunction="4way_76"/>
<trip id="192" depart="59.0592" fromJunction="4way_71" toJunction="4way_54"/>
<trip id="193" depart="59.3668" fromJunction="4way_12" toJunction="3way_7"/>
<trip id="194" depart="59.6744" fromJunction="4way_27" toJunction="3way_80"/>
<trip id="195" depart="59.982" fromJunction="4way_58" toJunction="3way_4"/>
<trip id="196" depart="60.2896" fromJunction="3way_97" toJunction="3way_2"/>
<trip id="197" depart="60.597199999999994" fromJunction="4way_28" toJunction="4way_71"/>
<trip id="198" depart="60.904799999999994" fromJunction="4way_38" toJunction="3way_29"/>
<trip id="199" depart="61.212399999999995" fromJunction="4way_42" toJunction="4way_47"/>
<trip id="200" depart="61.519999999999996" fromJunction="3way_92" toJunction="3way_10"/>
<trip id="201" depart="61.8276" fromJunction="3way_4" toJunction="4way_34"/>
<trip id="202" depart="62.1352" fromJunction="4way_22" toJunction="3way_2"/>
<trip id="203" depart="62.4428" fromJunction="3way_80" toJunction="3way_7"/>
<trip id="204" depart="62.7504" fromJunction="3way_80" toJunction="3way_93"/>
<trip id="205" depart="63.058" fromJunction="3way_2" toJunction="3way_59"/>
<trip id="206" depart="63.36559999999999" fromJunction="4way_44" toJunction="3way_49"/>
<trip id="207" depart="63.673199999999994" fromJunction="4way_88" toJunction="4way_68"/>
<trip id="208" depart="63.980799999999995" fromJunction="3way_89" toJunction="4way_81"/>
<trip id="209" depart="64.2884" fromJunction="4way_82" toJunction="4way_64"/>
<trip id="210" depart="64.596" fromJunction="3way_7" toJunction="4way_78"/>
<trip id="211" depart="64.9036" fromJunction="3way_50" toJunction="4way_46"/>
<trip id="212" depart="65.21119999999999" fromJunction="4way_84" toJunction="3way_91"/>
<trip id="213" depart="65.5188" fromJunction="4way_84" toJunction="3way_91"/>
<trip id="214" depart="65.82639999999999" fromJunction="4way_12" toJunction="4way_23"/>
<trip id="215" depart="66.134" fromJunction="3way_50" toJunction="4way_63"/>
<trip id="216" depart="66.4416" fromJunction="4way_81" toJunction="4way_45"/>
<trip id="217" depart="66.7492" fromJunction="4way_86" toJunction="4way_31"/>
<trip id="218" depart="67.0568" fromJunction="3way_5" toJunction="4way_18"/>
<trip id="219" depart="67.3644" fromJunction="4way_21" toJunction="3way_92"/>
<trip id="220" depart="67.672" fromJunction="4way_78" toJunction="4way_76"/>
<trip id="221" depart="67.97959999999999" fromJunction="4way_77" toJunction="4way_68"/>
<trip id="222" depart="68.2872" fromJunction="4way_88" toJunction="3way_40"/>
<trip id="223" depart="68.59479999999999" fromJunction="3way_39" toJunction="3way_91"/>
<trip id="224" depart="68.9024" fromJunction="3way_92" toJunction="4way_48"/>
<trip id="225" depart="69.21" fromJunction="3way_6" toJunction="4way_35"/>
<trip id="226" depart="69.5176" fromJunction="4way_57" toJunction="4way_75"/>
<trip id="227" depart="69.8252" fromJunction="4way_51" toJunction="3way_60"/>
<trip id="228" depart="70.1328" fromJunction="4way_85" toJunction="4way_41"/>
<trip id="229" depart="70.4404" fromJunction="3way_98" toJunction="3way_92"/>
<trip id="230" depart="70.74799999999999" fromJunction="3way_30" toJunction="4way_42"/>
<trip id="231" depart="71.0556" fromJunction="3way_92" toJunction="4way_17"/>
<trip id="232" depart="71.36319999999999" fromJunction="4way_38" toJunction="4way_13"/>
<trip id="233" depart="71.6708" fromJunction="4way_47" toJunction="4way_54"/>
<trip id="234" depart="71.9784" fromJunction="4way_16" toJunction="4way_38"/>
<trip id="235" depart="72.286" fromJunction="4way_58" toJunction="4way_45"/>
<trip id="236" depart="72.5936" fromJunction="4way_42" toJunction="4way_88"/>
<trip id="237" depart="72.9012" fromJunction="3way_40" toJunction="3way_7"/>
<trip id="238" depart="73.2088" fromJunction="4way_12" toJunction="3way_79"/>
<trip id="239" depart="73.51639999999999" fromJunction="4way_24" toJunction="3way_59"/>
<trip id="240" depart="73.824" fromJunction="4way_67" toJunction="4way_51"/>
<trip id="241" depart="74.13159999999999" fromJunction="4way_53" toJunction="4way_58"/>
<trip id="242" depart="74.4392" fromJunction="4way_14" toJunction="3way_60"/>
<trip id="243" depart="74.7468" fromJunction="4way_81" toJunction="4way_77"/>
<trip id="244" depart="75.0544" fromJunction="3way_60" toJunction="4way_53"/>
<trip id="245" depart="75.362" fromJunction="4way_71" toJunction="4way_42"/>
<trip id="246" depart="75.6696" fromJunction="4way_13" toJunction="3way_91"/>
<trip id="247" depart="75.9772" fromJunction="4way_41" toJunction="3way_30"/>
<trip id="248" depart="76.28479999999999" fromJunction="4way_16" toJunction="4way_33"/>
<trip id="249" depart="76.5924" fromJunction="4way_18" toJunction="4way_11"/>
<trip id="250" depart="76.89999999999999" fromJunction="3way_5" toJunction="4way_37"/>
<trip id="251" depart="77.2076" fromJunction="4way_32" toJunction="3way_80"/>
<trip id="252" depart="77.5152" fromJunction="4way_21" toJunction="3way_39"/>
<trip id="253" depart="77.8228" fromJunction="4way_25" toJunction="4way_85"/>
<trip id="254" depart="78.1304" fromJunction="4way_55" toJunction="4way_44"/>
<trip id="255" depart="78.438" fromJunction="4way_11" toJunction="3way_95"/>
<trip id="256" depart="78.7456" fromJunction="4way_57" toJunction="4way_15"/>
<trip id="257" depart="79.05319999999999" fromJunction="3way_50" toJunction="4way_53"/>
<trip id="258" depart="79.3608" fromJunction="4way_55" toJunction="3way_3"/>
<trip id="259" depart="79.66839999999999" fromJunction="4way_41" toJunction="3way_1"/>
<trip id="260" depart="79.976" fromJunction="4way_18" toJunction="4way_33"/>
<trip id="261" depart="80.28359999999999" fromJunction="4way_71" toJunction="3way_19"/>
<trip id="262" depart="80.5912" fromJunction="4way_11" toJunction="3way_3"/>
<trip id="263" depart="80.8988" fromJunction="3way_60" toJunction="4way_44"/>
<trip id="264" depart="81.2064" fromJunction="3way_49" toJunction="3way_94"/>
<trip id="265" depart="81.514" fromJunction="4way_35" toJunction="4way_83"/>
<trip id="266" depart="81.82159999999999" fromJunction="4way_48" toJunction="4way_15"/>
<trip id="267" depart="82.1292" fromJunction="4way_74" toJunction="3way_1"/>
<trip id="268" depart="82.43679999999999" fromJunction="4way_14" toJunction="4way_24"/>
<trip id="269" depart="82.7444" fromJunction="3way_2" toJunction="4way_58"/>
<trip id="270" depart="83.05199999999999" fromJunction="4way_76" toJunction="4way_35"/>
<trip id="271" depart="83.3596" fromJunction="4way_11" toJunction="4way_13"/>
<trip id="272" depart="83.6672" fromJunction="3way_29" toJunction="4way_46"/>
<trip id="273" depart="83.9748" fromJunction="4way_23" toJunction="4way_32"/>
<trip id="274" depart="84.2824" fromJunction="3way_19" toJunction="4way_35"/>
<trip id="275" depart="84.58999999999999" fromJunction="4way_81" toJunction="3way_93"/>
<trip id="276" depart="84.8976" fromJunction="4way_67" toJunction="4way_44"/>
<trip id="277" depart="85.20519999999999" fromJunction="3way_59" toJunction="4way_44"/>
<trip id="278" depart="85.5128" fromJunction="4way_47" toJunction="4way_78"/>
<trip id="279" depart="85.82039999999999" fromJunction="4way_18" toJunction="4way_13"/>
<trip id="280" depart="86.128" fromJunction="4way_18" toJunction="4way_43"/>
<trip id="281" depart="86.4356" fromJunction="4way_58" toJunction="4way_86"/>
<trip id="282" depart="86.7432" fromJunction="3way_4" toJunction="4way_18"/>
<trip id="283" depart="87.0508" fromJunction="4way_61" toJunction="3way_98"/>
<trip id="284" depart="87.35839999999999" fromJunction="3way_40" toJunction="4way_48"/>
<trip id="285" depart="87.666" fromJunction="4way_67" toJunction="3way_89"/>
<trip id="286" depart="87.97359999999999" fromJunction="4way_87" toJunction="4way_32"/>
<trip id="287" depart="88.2812" fromJunction="4way_84" toJunction="3way_89"/>
<trip id="288" depart="88.58879999999999" fromJunction="3way_8" toJunction="4way_32"/>
<trip id="289" depart="88.8964" fromJunction="3way_91" toJunction="4way_35"/>
<trip id="290" depart="89.204" fromJunction="3way_6" toJunction="3way_4"/>
<trip id="291" depart="89.5116" fromJunction="4way_87" toJunction="3way_6"/>
<trip id="292" depart="89.8192" fromJunction="4way_77" toJunction="4way_85"/>
<trip id="293" depart="90.12679999999999" fromJunction="4way_33" toJunction="4way_15"/>
<trip id="294" depart="90.4344" fromJunction="4way_88" toJunction="3way_30"/>
<trip id="295" depart="90.74199999999999" fromJunction="4way_62" toJunction="4way_31"/>
<trip id="296" depart="91.0496" fromJunction="4way_78" toJunction="4way_51"/>
<trip id="297" depart="91.35719999999999" fromJunction="3way_10" toJunction="3way_98"/>
<trip id="298" depart="91.6648" fromJunction="3way_7" toJunction="4way_25"/>
<trip id="299" depart="91.9724" fromJunction="4way_62" toJunction="4way_34"/>
<trip id="300" depart="92.28" fromJunction="3way_92" toJunction="3way_50"/>
<trip id="301" depart="92.5876" fromJunction="4way_41" toJunction="4way_23"/>
<trip id="302" depart="92.89519999999999" fromJunction="4way_11" toJunction="4way_42"/>
<trip id="303" depart="93.2028" fromJunction="3way_59" toJunction="4way_68"/>
<trip id="304" depart="93.51039999999999" fromJunction="4way_11" toJunction="3way_29"/>
<trip id="305" depart="93.818" fromJunction="4way_84" toJunction="4way_14"/>
<trip id="306" depart="94.12559999999999" fromJunction="4way_88" toJunction="4way_71"/>
<trip id="307" depart="94.4332" fromJunction="4way_65" toJunction="4way_21"/>
<trip id="308" depart="94.7408" fromJunction="4way_76" toJunction="4way_64"/>
<trip id="309" depart="95.0484" fromJunction="4way_67" toJunction="4way_68"/>
<trip id="310" depart="95.356" fromJunction="4way_45" toJunction="4way_26"/>
<trip id="311" depart="95.66359999999999" fromJunction="3way_79" toJunction="4way_11"/>
<trip id="312" depart="95.9712" fromJunction="3way_91" toJunction="3way_7"/>
<trip id="313" depart="96.27879999999999" fromJunction="4way_33" toJunction="4way_22"/>
<trip id="314" depart="96.5864" fromJunction="4way_58" toJunction="4way_36"/>
<trip id="315" depart="96.89399999999999" fromJunction="3way_39" toJunction="3way_49"/>
<trip id="316" depart="97.2016" fromJunction="4way_85" toJunction="4way_14"/>
<trip id="317" depart="97.50919999999999" fromJunction="4way_28" toJunction="4way_27"/>
<trip id="318" depart="97.8168" fromJunction="4way_71" toJunction="4way_78"/>
<trip id="319" depart="98.1244" fromJunction="3way_79" toJunction="4way_51"/>
<trip id="320" depart="98.43199999999999" fromJunction="4way_84" toJunction="4way_25"/>
<trip id="321" depart="98.7396" fromJunction="3way_29" toJunction="4way_37"/>
<trip id="322" depart="99.04719999999999" fromJunction="4way_83" toJunction="4way_82"/>
<trip id="323" depart="99.3548" fromJunction="3way_98" toJunction="3way_91"/>
<trip id="324" depart="99.66239999999999" fromJunction="3way_6" toJunction="4way_37"/>
<trip id="325" depart="99.97" fromJunction="3way_49" toJunction="4way_62"/>
<trip id="326" depart="100.27759999999999" fromJunction="4way_78" toJunction="4way_42"/>
<trip id="327" depart="100.5852" fromJunction="4way_37" toJunction="4way_12"/>
<trip id="328" depart="100.8928" fromJunction="3way_60" toJunction="3way_49"/>
<trip id="329" depart="101.2004" fromJunction="4way_21" toJunction="4way_15"/>
<trip id="330" depart="101.508" fromJunction="4way_64" toJunction="4way_55"/>
<trip id="331" depart="101.81559999999999" fromJunction="4way_22" toJunction="4way_71"/>
<trip id="332" depart="102.1232" fromJunction="3way_7" toJunction="4way_34"/>
<trip id="333" depart="102.43079999999999" fromJunction="4way_74" toJunction="4way_76"/>
<trip id="334" depart="102.7384" fromJunction="4way_43" toJunction="4way_65"/>
<trip id="335" depart="103.04599999999999" fromJunction="4way_71" toJunction="3way_39"/>
<trip id="336" depart="103.3536" fromJunction="3way_20" toJunction="4way_71"/>
<trip id="337" depart="103.6612" fromJunction="4way_75" toJunction="3way_3"/>
<trip id="338" depart="103.9688" fromJunction="4way_34" toJunction="3way_39"/>
<trip id="339" depart="104.2764" fromJunction="4way_54" toJunction="4way_45"/>
<trip id="340" depart="104.58399999999999" fromJunction="3way_29" toJunction="4way_58"/>
<trip id="341" depart="104.8916" fromJunction="3way_3" toJunction="4way_47"/>
<trip id="342" depart="105.19919999999999" fromJunction="4way_71" toJunction="4way_43"/>
<trip id="343" depart="105.5068" fromJunction="4way_41" toJunction="4way_33"/>
<trip id="344" depart="105.81439999999999" fromJunction="3way_2" toJunction="3way_96"/>
<trip id="345" depart="106.122" fromJunction="4way_17" toJunction="4way_23"/>
<trip id="346" depart="106.4296" fromJunction="3way_93" toJunction="4way_41"/>
<trip id="347" depart="106.7372" fromJunction="3way_19" toJunction="3way_8"/>
<trip id="348" depart="107.0448" fromJunction="3way_29" toJunction="3way_93"/>
<trip id="349" depart="107.35239999999999" fromJunction="3way_7" toJunction="3way_70"/>
<trip id="350" depart="107.66" fromJunction="4way_37" toJunction="3way_7"/>
<trip id="351" depart="107.96759999999999" fromJunction="4way_63" toJunction="3way_89"/>
<trip id="352" depart="108.2752" fromJunction="4way_42" toJunction="4way_36"/>
<trip id="353" depart="108.58279999999999" fromJunction="3way_95" toJunction="3way_79"/>
<trip id="354" depart="108.8904" fromJunction="4way_33" toJunction="4way_22"/>
<trip id="355" depart="109.198" fromJunction="4way_46" toJunction="4way_21"/>
<trip id="356" depart="109.5056" fromJunction="4way_28" toJunction="4way_16"/>
<trip id="357" depart="109.8132" fromJunction="4way_67" toJunction="3way_3"/>
<trip id="358" depart="110.12079999999999" fromJunction="4way_57" toJunction="4way_61"/>
<trip id="359" depart="110.4284" fromJunction="4way_78" toJunction="4way_35"/>
<trip id="360" depart="110.73599999999999" fromJunction="4way_31" toJunction="4way_16"/>
<trip id="361" depart="111.0436" fromJunction="4way_51" toJunction="4way_13"/>
<trip id="362" depart="111.35119999999999" fromJunction="3way_70" toJunction="4way_41"/>
<trip id="363" depart="111.6588" fromJunction="4way_25" toJunction="4way_82"/>
<trip id="364" depart="111.9664" fromJunction="4way_33" toJunction="3way_60"/>
<trip id="365" depart="112.274" fromJunction="3way_89" toJunction="3way_49"/>
<trip id="366" depart="112.5816" fromJunction="4way_68" toJunction="3way_5"/>
<trip id="367" depart="112.88919999999999" fromJunction="3way_97" toJunction="3way_1"/>
<trip id="368" depart="113.1968" fromJunction="3way_8" toJunction="4way_34"/>