<routes xmlns:xsi="http://www.w3.org/2001/XMLSchema-instance" xsi:noNamespaceSchemaLocation="http://sumo.dlr.de/xsd/routes_file.xsd">
<trip id="0" depart="0.0" fromJunction="4way_24" toJunction="4way_36"/>
<trip id="1" depart="0.4395" fromJunction="4way_36" toJunction="4way_23"/>
<trip id="2" depart="0.879" fromJunction="4way_37" toJunction="3way_7"/>
<trip id="3" depart="1.3185" fromJunction="4way_12" toJunction="3way_7"/>
<trip id="4" depart="1.758" fromJunction="3way_21" toJunction="4way_33"/>
<trip id="5" depart="2.1975" fromJunction="4way_29" toJunction="4way_11"/>
<trip id="6" depart="2.637" fromJunction="4way_19" toJunction="4way_9"/>
<trip id="7" depart="3.0765000000000002" fromJunction="4way_25" toJunction="3way_1"/>
<trip id="8" depart="3.516" fromJunction="4way_39" toJunction="4way_11"/>
<trip id="9" depart="3.9555" fromJunction="4way_11" toJunction="4way_40"/>
<trip id="10" depart="4.395" fromJunction="4way_11" toJunction="4way_8"/>
<trip id="11" depart="4.8345" fromJunction="4way_30" toJunction="3way_13"/>
<trip id="12" depart="5.274" fromJunction="4way_26" toJunction="3way_20"/>
<trip id="13" depart="5.7135" fromJunction="3way_14" toJunction="4way_29"/>
<trip id="14" depart="6.1530000000000005" fromJunction="4way_38" toJunction="3way_46"/>
<trip id="15" depart="6.5925" fromJunction="4way_9" toJunction="4way_8"/>
<trip id="16" depart="7.032" fromJunction="4way_23" toJunction="3way_1"/>
<trip id="17" depart="7.4715" fromJunction="4way_10" toJunction="4way_26"/>
<trip id="18" depart="7.911" fromJunction="3way_7" toJunction="3way_28"/>
<trip id="19" depart="8.3505" fromJunction="3way_3" toJunction="4way_17"/>
<trip id="20" depart="8.79" fromJunction="3way_13" toJunction="3way_41"/>
<trip id="21" depart="9.2295" fromJunction="3way_28" toJunction="3way_43"/>
<trip id="22" depart="9.669" fromJunction="3way_7" toJunction="4way_9"/>
<trip id="23" depart="10.1085" fromJunction="3way_5" toJunction="4way_40"/>
<trip id="24" depart="10.548" fromJunction="3way_27" toJunction="3way_41"/>
<trip id="25" depart="10.9875" fromJunction="3way_46" toJunction="4way_37"/>
<trip id="26" depart="11.427" fromJunction="3way_47" toJunction="4way_8"/>
<trip id="27" depart="11.8665" fromJunction="3way_5" toJunction="3way_27"/>
<trip id="28" depart="12.306000000000001" fromJunction="3way_20" toJunction="4way_37"/>
<trip id="29" depart="12.7455" fromJunction="3way_28" toJunction="3way_34"/>
<trip id="30" depart="13.185" fromJunction="3way_5" toJunction="4way_18"/>
<trip id="31" depart="13.6245" fromJunction="3way_5" toJunction="4way_25"/>
<trip id="32" depart="14.064" fromJunction="4way_15" toJunction="4way_33"/>
<trip id="33" depart="14.5035" fromJunction="4way_23" toJunction="4way_33"/>
<trip id="34" depart="14.943" fromJunction="3way_2" toJunction="4way_31"/>
<trip id="35" depart="15.3825" fromJunction="3way_13" toJunction="3way_45"/>
<trip id="36" depart="15.822" fromJunction="3way_13" toJunction="3way_44"/>
<trip id="37" depart="16.2615" fromJunction="3way_14" toJunction="3way_43"/>
<trip id="38" depart="16.701" fromJunction="4way_17" toJunction="3way_3"/>
<trip id="39" depart="17.1405" fromJunction="3way_46" toJunction="4way_9"/>
<trip id="40" depart="17.58" fromJunction="3way_5" toJunction="4way_29"/>
<trip id="41" depart="18.0195" fromJunction="4way_19" toJunction="4way_9"/>
<trip id="42" depart="18.459" fromJunction="4way_10" toJunction="3way_43"/>
<trip id="43" depart="18.8985" fromJunction="4way_24" toJunction="3way_13"/>
<trip id="44" depart="19.338" fromJunction="3way_34" toJunction="3way_44"/>
<trip id="45" depart="19.7775" fromJunction="3way_1" toJunction="4way_16"/>
<trip id="46" depart="20.217" fromJunction="3way_1" toJunction="4way_25"/>
<trip id="47" depart="20.6565" fromJunction="3way_45" toJunction="4way_10"/>
<trip id="48" depart="21.096" fromJunction="4way_33" toJunction="4way_31"/>
<trip id="49" depart="21.5355" fromJunction="4way_9" toJunction="3way_46"/>
<trip id="50" depart="21.975" fromJunction="4way_9" toJunction="4way_16"/>
<trip id="51" depart="22.4145" fromJunction="4way_26" toJunction="3way_47"/>
<trip id="52" depart="22.854" fromJunction="4way_32" toJunction="4way_8"/>
<trip id="53" depart="23.2935" fromJunction="3way_44" toJunction="4way_17"/>
<trip id="54" depart="23.733" fromJunction="3way_21" toJunction="4way_18"/>
<trip id="55" depart="24.1725" fromJunction="4way_16" toJunction="4way_39"/>
<trip id="56" depart="24.612000000000002" fromJunction="4way_17" toJunction="4way_39"/>
<trip id="57" depart="25.0515" fromJunction="4way_22" toJunction="4way_24"/>
<trip id="58" depart="25.491" fromJunction="4way_30" toJunction="4way_33"/>
<trip id="59" depart="25.9305" fromJunction="4way_23" toJunction="3way_7"/>
<trip id="60" depart="26.37" fromJunction="3way_44" toJunction="3way_1"/>
<trip id="61" depart="26.8095" fromJunction="3way_44" toJunction="4way_37"/>
<trip id="62" depart="27.249" fromJunction="3way_7" toJunction="4way_23"/>
<trip id="63" depart="27.6885" fromJunction="3way_44" toJunction="3way_20"/>
<trip id="64" depart="28.128" fromJunction="4way_16" toJunction="4way_9"/>
<trip id="65" depart="28.5675" fromJunction="4way_37" toJunction="4way_9"/>
<trip id="66" depart="29.007" fromJunction="3way_7" toJunction="4way_37"/>
<trip id="67" depart="29.4465" fromJunction="3way_28" toJunction="4way_12"/>
<trip id="68" depart="29.886" fromJunction="4way_12" toJunction="3way_7"/>
<trip id="69" depart="30.3255" fromJunction="4way_17" toJunction="4way_18"/>
<trip id="70" depart="30.765" fromJunction="4way_19" toJunction="3way_5"/>
<trip id="71" depart="31.2045" fromJunction="4way_40" toJunction="4way_24"/>
<trip id="72" depart="31.644" fromJunction="4way_39" toJunction="3way_20"/>
<trip id="73" depart="32.0835" fromJunction="4way_23" toJunction="3way_27"/>
<trip id="74" depart="32.523" fromJunction="4way_32" toJunction="3way_13"/>
<trip id="75" depart="32.9625" fromJunction="4way_9" toJunction="4way_18"/>
<trip id="76" depart="33.402" fromJunction="3way_4" toJunction="3way_14"/>
<trip id="77" depart="33.8415" fromJunction="4way_8" toJunction="4way_17"/>
<trip id="78" depart="34.281" fromJunction="4way_32" toJunction="4way_24"/>
<trip id="79" depart="34.7205" fromJunction="4way_32" toJunction="4way_33"/>
<trip id="80" depart="35.16" fromJunction="3way_28" toJunction="3way_1"/>
<trip id="81" depart="35.5995" fromJunction="3way_27" toJunction="4way_24"/>
<trip id="82" depart="36.039" fromJunction="3way_3" toJunction="4way_29"/>
<trip id="83" depart="36.4785" fromJunction="3way_1" toJunction="3way_34"/>
<trip id="84" depart="36.918" fromJunction="3way_47" toJunction="4way_11"/>
<trip id="85" depart="37.3575" fromJunction="4way_19" toJunction="3way_35"/>
<trip id="86" depart="37.797" fromJunction="3way_2" toJunction="4way_17"/>
<trip id="87" depart="38.2365" fromJunction="4way_23" toJunction="3way_27"/>
<trip id="88" depart="38.676" fromJunction="3way_47" toJunction="4way_9"/>
<trip id="89" depart="39.1155" fromJunction="4way_23" toJunction="4way_26"/>
<trip id="90" depart="39.555" fromJunction="4way_16" toJunction="4way_36"/>
<trip id="91" depart="39.9945" fromJunction="3way_43" toJunction="4way_24"/>
<trip id="92" depart="40.434" fromJunction="3way_41" toJunction="3way_21"/>
<trip id="93" depart="40.8735" fromJunction="4way_26" toJunction="3way_34"/>
<trip id="94" depart="41.313" fromJunction="4way_22" toJunction="4way_31"/>
<trip id="95" depart="41.7525" fromJunction="3way_46" toJunction="3way_47"/>
<trip id="96" depart="42.192" fromJunction="3way_7" toJunction="3way_3"/>
<trip id="97" depart="42.6315" fromJunction="4way_17" toJunction="3way_43"/>
<trip id="98" depart="43.071" fromJunction="3way_34" toJunction="3way_28"/>
<trip id="99" depart="43.5105" fromJunction="3way_4" toJunction="3way_2"/>
<trip id="100" depart="43.95" fromJunction="4way_8" toJunction="4way_10"/>
<trip id="101" depart="44.3895" fromJunction="4way_12" toJunction="4way_36"/>
<trip id="102" depart="44.829" fromJunction="3way_41" toJunction="4way_40"/>
<trip id="103" depart="45.2685" fromJunction="3way_46" toJunction="4way_37"/>
<trip id="104" depart="45.708" fromJunction="4way_38" toJunction="3way_1"/>
<trip id="105" depart="46.1475" fromJunction="3way_21" toJunction="3way_43"/>
<trip id="106" depart="46.587" fromJunction="4way_25" toJunction="4way_16"/>
<trip id="107" depart="47.0265" fromJunction="4way_39" toJunction="4way_30"/>
<trip id="108" depart="47.466" fromJunction="4way_11" toJunction="3way_45"/>
<trip id="109" depart="47.9055" fromJunction="4way_26" toJunction="3way_34"/>
<trip id="110" depart="48.345" fromJunction="3way_41" toJunction="4way_10"/>
<trip id="111" depart="48.7845" fromJunction="4way_24" toJunction="4way_26"/>
<trip id="112" depart="49.224000000000004" fromJunction="3way_41" toJunction="3way_46"/>
<trip id="113" depart="49.6635" fromJunction="3way_2" toJunction="4way_29"/>
<trip id="114" depart="50.103" fromJunction="3way_7" toJunction="3way_41"/>
<trip id="115" depart="50.5425" fromJunction="4way_8" toJunction="3way_28"/>
<trip id="116" depart="50.982" fromJunction="4way_16" toJunction="3way_45"/>
<trip id="117" depart="51.4215" fromJunction="3way_13" toJunction="4way_32"/>
<trip id="118" depart="51.861" fromJunction="3way_13" toJunction="4way_29"/>
<trip id="119" depart="52.3005" fromJunction="3way_21" toJunction="4way_24"/>
<trip id="120" depart="52.74" fromJunction="3way_34" toJunction="4way_9"/>
<trip id="121" depart="53.1795" fromJunction="4way_15" toJunction="3way_20"/>
<trip id="122" depart="53.619" fromJunction="4way_26" toJunction="3way_28"/>
<trip id="123" depart="54.0585" fromJunction="4way_31" toJunction="4way_38"/>
<trip id="124" depart="54.498" fromJunction="3way_4" toJunction="4way_12"/>
<trip id="125" depart="54.9375" fromJunction="4way_16" toJunction="4way_36"/>
<trip id="126" depart="55.377" fromJunction="3way_44" toJunction="4way_33"/>
<trip id="127" depart="55.8165" fromJunction="3way_5" toJunction="3way_47"/>
<trip id="128" depart="56.256" fromJunction="4way_19" toJunction="3way_1"/>
<trip id="129" depart="56.6955" fromJunction="4way_11" toJunction="4way_10"/>
<trip id="130" depart="57.135" fromJunction="4way_16" toJunction="3way_45"/>
<trip id="131" depart="57.5745" fromJunction="4way_15" toJunction="3way_3"/>
<trip id="132" depart="58.014" fromJunction="4way_39" toJunction="4way_33"/>
<trip id="133" depart="58.4535" fromJunction="4way_33" toJunction="3way_35"/>
<trip id="134" depart="58.893" fromJunction="4way_26" toJunction="3way_47"/>
<trip id="135" depart="59.3325" fromJunction="4way_11" toJunction="4way_26"/>
<trip id="136" depart="59.772" fromJunction="4way_39" toJunction="4way_30"/>
<trip id="137" depart="60.2115" fromJunction="4way_32" toJunction="3way_44"/>
<trip id="138" depart="60.651" fromJunction="3way_1" toJunction="4way_23"/>
<trip id="139" depart="61.0905" fromJunction="3way_20" toJunction="3way_35"/>
<trip id="140" depart="61.53" fromJunction="4way_15" toJunction="4way_40"/>
<trip id="141" depart="61.969500000000004" fromJunction="4way_30" toJunction="4way_22"/>
<trip id="142" depart="62.409" fromJunction="3way_20" toJunction="3way_28"/>
<trip id="143" depart="62.8485" fromJunction="3way_34" toJunction="4way_18"/>
<trip id="144" depart="63.288" fromJunction="3way_47" toJunction="4way_29"/>
<trip id="145" depart="63.7275" fromJunction="4way_32" toJunction="3way_5"/>
<trip id="146" depart="64.167" fromJunction="4way_38" toJunction="4way_12"/>
<trip id="147" depart="64.6065" fromJunction="3way_4" toJunction="3way_43"/>
<trip id="148" depart="65.046" fromJunction="3way_47" toJunction="3way_14"/>
<trip id="149" depart="65.4855" fromJunction="3way_3" toJunction="3way_13"/>
<trip id="150" depart="65.925" fromJunction="3way_1" toJunction="4way_24"/>
<trip id="151" depart="66.3645" fromJunction="3way_20" toJunction="4way_38"/>
<trip id="152" depart="66.804" fromJunction="3way_5" toJunction="3way_4"/>
<trip id="153" depart="67.2435" fromJunction="3way_46" toJunction="4way_10"/>
<trip id="154" depart="67.683" fromJunction="4way_9" toJunction="3way_14"/>
<trip id="155" depart="68.1225" fromJunction="4way_24" toJunction="4way_32"/>
<trip id="156" depart="68.562" fromJunction="3way_13" toJunction="3way_45"/>
<trip id="157" depart="69.00150000000001" fromJunction="3way_44" toJunction="3way_3"/>
<trip id="158" depart="69.441" fromJunction="4way_8" toJunction="3way_46"/>
<trip id="159" depart="69.8805" fromJunction="4way_17" toJunction="4way_10"/>
<trip id="160" depart="70.32" fromJunction="3way_21" toJunction="3way_45"/>
<trip id="161" depart="70.7595" fromJunction="4way_11" toJunction="3way_34"/>
<trip id="162" depart="71.199" fromJunction="4way_17" toJunction="3way_3"/>
<trip id="163" depart="71.6385" fromJunction="4way_38" toJunction="4way_11"/>
<trip id="164" depart="72.078" fromJunction="3way_28" toJunction="3way_46"/>
<trip id="165" depart="72.5175" fromJunction="3way_45" toJunction="4way_16"/>
<trip id="166" depart="72.957" fromJunction="3way_34" toJunction="3way_28"/>
<trip id="167" depart="73.3965" fromJunction="3way_3" toJunction="4way_8"/>
<trip id="168" depart="73.836" fromJunction="3way_4" toJunction="4way_11"/>
<trip id="169" depart="74.2755" fromJunction="3way_44" toJunction="4way_29"/>
<trip id="170" depart="74.715" fromJunction="4way_33" toJunction="4way_9"/>
<trip id="171" depart="75.1545" fromJunction="3way_2" toJunction="4way_37"/>
<trip id="172" depart="75.594" fromJunction="4way_22" toJunction="3way_7"/>
<trip id="173" depart="76.0335" fromJunction="4way_10" toJunction="4way_36"/>
<trip id="174" depart="76.473" fromJunction="3way_13" toJunction="3way_45"/>
<trip id="175" depart="76.9125" fromJunction="4way_33" toJunction="3way_21"/>
<trip id="176" depart="77.352" fromJunction="4way_12" toJunction="3way_34"/>
<trip id="177" depart="77.7915" fromJunction="4way_8" toJunction="4way_36"/>
<trip id="178" depart="78.231" fromJunction="4way_8" toJunction="4way_39"/>
<trip id="179" depart="78.6705" fromJunction="3way_21" toJunction="4way_24"/>
<trip id="180" depart="79.11" fromJunction="4way_17" toJunction="4way_12"/>
<trip id="181" depart="79.5495" fromJunction="3way_43" toJunction="4way_17"/>
<trip id="182" depart="79.989" fromJunction="4way_30" toJunction="4way_38"/>
<trip id="183" depart="80.4285" fromJunction="3way_27" toJunction="3way_47"/>
<trip id="184" depart="80.868" fromJunction="4way_33" toJunction="4way_11"/>
<trip id="185" depart="81.3075" fromJunction="4way_16" toJunction="4way_8"/>
<trip id="186" depart="81.747" fromJunction="4way_8" toJunction="4way_32"/>
<trip id="187" depart="82.1865" fromJunction="4way_9" toJunction="4way_26"/>
<trip id="188" depart="82.626" fromJunction="4way_12" toJunction="4way_18"/>
<trip id="189" depart="83.0655" fromJunction="3way_27" toJunction="4way_18"/>
<trip id="190" depart="83.505" fromJunction="3way_21" toJunction="4way_30"/>
<trip id="191" depart="83.9445" fromJunction="3way_7" toJunction="3way_3"/>
<trip id="192" depart="84.384" fromJunction="4way_32" toJunction="3way_46"/>
<trip id="193" depart="84.8235" fromJunction="4way_33" toJunction="3way_2"/>
<trip id="194" depart="85.263" fromJunction="3way_28" toJunction="3way_35"/>
<trip id="195" depart="85.7025" fromJunction="3way_34" toJunction="3way_1"/>
<trip id="196" depart="86.142" fromJunction="4way_19" toJunction="3way_14"/>
<trip id="197" depart="86.5815" fromJunction="4way_26" toJunction="3way_5"/>
<trip id="198" depart="87.021" fromJunction="4way_8" toJunction="4way_39"/>
<trip id="199" depart="87.4605" fromJunction="3way_47" toJunction="3way_43"/>
<trip id="200" depart="87.9" fromJunction="3way_2" toJunction="4way_23"/>
<trip id="201" depart="88.3395" fromJunction="3way_7" toJunction="3way_1"/>
<trip id="202" depart="88.779" fromJunction="3way_46" toJunction="3way_4"/>
<trip id="203" depart="89.2185" fromJunction="3way_46" toJunction="3way_41"/>
<trip id="204" depart="89.658" fromJunction="3way_1" toJunction="3way_13"/>
<trip id="205" depart="90.0975" fromJunction="4way_23" toJunction="3way_13"/>
<trip id="206" depart="90.537" fromJunction="4way_40" toJunction="4way_33"/>
<trip id="207" depart="90.9765" fromJunction="3way_27" toJunction="3way_14"/>
<trip id="208" depart="91.416" fromJunction="4way_22" toJunction="4way_30"/>
<trip id="209" depart="91.8555" fromJunction="3way_3" toJunction="4way_40"/>
<trip id="210" depart="92.295" fromJunction="3way_45" toJunction="4way_11"/>
<trip id="211" depart="92.7345" fromJunction="4way_37" toJunction="3way_47"/>
<trip id="212" depart="93.174" fromJunction="4way_37" toJunction="3way_46"/>
<trip id="213" depart="93.6135" fromJunction="3way_7" toJunction="4way_29"/>
<trip id="214" depart="94.053" fromJunction="3way_45" toJunction="4way_36"/>
<trip id="215" depart="94.4925" fromJunction="3way_14" toJunction="4way_17"/>
<trip id="216" depart="94.932" fromJunction="4way_25" toJunction="3way_28"/>
<trip id="217" depart="95.3715" fromJunction="3way_3" toJunction="4way_19"/>
<trip id="218" depart="95.811" fromJunction="3way_35" toJunction="3way_47"/>
<trip id="219" depart="96.2505" fromJunction="4way_40" toJunction="4way_18"/>
<trip id="220" depart="96.69" fromJunction="4way_12" toJunction="4way_33"/>
<trip id="221" depart="97.12950000000001" fromJunction="4way_40" toJunction="3way_44"/>
<trip id="222" depart="97.569" fromJunction="3way_5" toJunction="3way_46"/>
<trip id="223" depart="98.0085" fromJunction="3way_47" toJunction="4way_26"/>
<trip id="224" depart="98.44800000000001" fromJunction="3way_3" toJunction="4way_17"/>
<trip id="225" depart="98.8875" fromJunction="4way_39" toJunction="4way_24"/>
<trip id="226" depart="99.327" fromJunction="3way_21" toJunction="3way_45"/>
<trip id="227" depart="99.7665" fromJunction="4way_31" toJunction="3way_28"/>
<trip id="228" depart="100.206" fromJunction="3way_27" toJunction="3way_47"/>
<trip id="229" depart="100.6455" fromJunction="3way_44" toJunction="4way_8"/>
<trip id="230" depart="101.085" fromJunction="3way_47" toJunction="4way_25"/>
<trip id="231" depart="101.5245" fromJunction="4way_26" toJunction="4way_22"/>
<trip id="232" depart="101.964" fromJunction="4way_39" toJunction="4way_30"/>
<trip id="233" depart="102.4035" fromJunction="4way_31" toJunction="4way_26"/>
<trip id="234" depart="102.843" fromJunction="4way_33" toJunction="4way_17"/>
<trip id="235" depart="103.2825" fromJunction="4way_8" toJunction="4way_40"/>
<trip id="236" depart="103.722" fromJunction="3way_44" toJunction="3way_4"/>
<trip id="237" depart="104.1615" fromJunction="3way_14" toJunction="3way_20"/>
<trip id="238" depart="104.601" fromJunction="4way_23" toJunction="3way_13"/>
<trip id="239" depart="105.0405" fromJunction="4way_12" toJunction="3way_21"/>
<trip id="240" depart="105.48" fromJunction="4way_36" toJunction="4way_33"/>
<trip id="241" depart="105.9195" fromJunction="4way_16" toJunction="3way_45"/>
<trip id="242" depart="106.359" fromJunction="3way_14" toJunction="4way_12"/>
<trip id="243" depart="106.7985" fromJunction="3way_45" toJunction="4way_36"/>
<trip id="244" depart="107.238" fromJunction="3way_14" toJunction="4way_8"/>
<trip id="245" depart="107.6775" fromJunction="4way_22" toJunction="3way_46"/>
<trip id="246" depart="108.117" fromJunction="3way_28" toJunction="3way_44"/>
<trip id="247" depart="108.5565" fromJunction="4way_31" toJunction="4way_29"/>
<trip id="248" depart="108.996" fromJunction="4way_19" toJunction="3way_35"/>
<trip id="249" depart="109.4355" fromJunction="3way_3" toJunction="4way_32"/>
<trip id="250" depart="109.875" fromJunction="4way_8" toJunction="3way_46"/>
<trip id="251" depart="110.3145" fromJunction="3way_35" toJunction="3way_5"/>
<trip id="252" depart="110.754" fromJunction="4way_10" toJunction="4way_31"/>
<trip id="253" depart="111.1935" fromJunction="4way_17" toJunction="4way_30"/>
<trip id="254" depart="111.633" fromJunction="3way_35" toJunction="3way_41"/>
<trip id="255" depart="112.0725" fromJunction="4way_39" toJunction="4way_10"/>
<trip id="256" depart="112.512" fromJunction="3way_45" toJunction="4way_36"/>
<trip id="257" depart="112.9515" fromJunction="4way_17" toJunction="3way_2"/>
<trip id="258" depart="113.391" fromJunction="3way_28" toJunction="3way_1"/>
<trip id="259" depart="113.8305" fromJunction="4way_19" toJunction="4way_29"/>
<trip id="260" depart="114.27" fromJunction="3way_14" toJunction="3way_5"/>
<trip id="261" depart="114.7095" fromJunction="3way_35" toJunction="3way_2"/>
<trip id="262" depart="115.149" fromJunction="3way_45" toJunction="4way_30"/>
<trip id="263" depart="115.5885" fromJunction="3way_13" toJunction="3way_41"/>
<trip id="264" depart="116.028" fromJunction="4way_17" toJunction="4way_9"/>
<trip id="265" depart="116.4675" fromJunction="4way_26" toJunction="4way_10"/>
<trip id="266" depart="116.907" fromJunction="4way_37" toJunction="3way_1"/>
<trip id="267" depart="117.3465" fromJunction="4way_16" toJunction="4way_23"/>
<trip id="268" depart="117.786" fromJunction="3way_1" toJunction="4way_33"/>
<trip id="269" depart="118.2255" fromJunction="4way_18" toJunction="4way_17"/>
<trip id="270" depart="118.665" fromJunction="3way_35" toJunction="4way_22"/>
<trip id="271" depart="119.1045" fromJunction="3way_5" toJunction="4way_11"/>
<trip id="272" depart="119.544" fromJunction="4way_29" toJunction="3way_7"/>
<trip id="273" depart="119.9835" fromJunction="3way_5" toJunction="4way_17"/>
<trip id="274" depart="120.423" fromJunction="3way_14" toJunction="3way_47"/>
<trip id="275" depart="120.8625" fromJunction="4way_39" toJunction="4way_30"/>
<trip id="276" depart="121.302" fromJunction="3way_20" toJunction="4way_23"/>
<trip id="277" depart="121.7415" fromJunction="4way_39" toJunction="4way_40"/>
<trip id="278" depart="122.181" fromJunction="4way_19" toJunction="4way_22"/>
<trip id="279" depart="122.6205" fromJunction="4way_19" toJunction="4way_36"/>
<trip id="280" depart="123.06" fromJunction="4way_33" toJunction="4way_25"/>
<trip id="281" depart="123.4995" fromJunction="3way_2" toJunction="4way_19"/>
<trip id="282" depart="123.93900000000001" fromJunction="3way_21" toJunction="3way_27"/>
<trip id="283" depart="124.3785" fromJunction="3way_44" toJunction="4way_26"/>
<trip id="284" depart="124.818" fromJunction="4way_39" toJunction="3way_27"/>
<trip id="285" depart="125.25750000000001" fromJunction="4way_12" toJunction="4way_8"/>
<trip id="286" depart="125.697" fromJunction="4way_37" toJunction="3way_27"/>
<trip id="287" depart="126.1365" fromJunction="3way_4" toJunction="3way_7"/>
<trip id="288" depart="126.576" fromJunction="3way_46" toJunction="4way_17"/>
<trip id="289" depart="127.0155" fromJunction="3way_3" toJunction="3way_2"/>
<trip id="290" depart="127.455" fromJunction="4way_12" toJunction="3way_3"/>
<trip id="291" depart="127.8945" fromJunction="4way_12" toJunction="4way_31"/>
<trip id="292" depart="128.334" fromJunction="4way_29" toJunction="4way_10"/>
<trip id="293" depart="128.7735" fromJunction="4way_40" toJunction="3way_44"/>
<trip id="294" depart="129.213" fromJunction="4way_15" toJunction="3way_28"/>
<trip id="295" depart="129.6525" fromJunction="4way_40" toJunction="3way_21"/>
<trip id="296" depart="130.092" fromJunction="3way_43" toJunction="3way_27"/>
<trip id="297" depart="130.5315" fromJunction="3way_3" toJunction="4way_10"/>
<trip id="298" depart="130.971" fromJunction="4way_15" toJunction="4way_23"/>
<trip id="299" depart="131.4105" fromJunction="3way_47" toJunction="3way_45"/>
<trip id="300" depart="131.85" fromJunction="3way_28" toJunction="4way_29"/>
<trip id="301" depart="132.2895" fromJunction="3way_35" toJunction="4way_8"/>
<trip id="302" depart="132.729" fromJunction="3way_20" toJunction="4way_33"/>
<trip id="303" depart="133.1685" fromJunction="3way_35" toJunction="3way_5"/>
<trip id="304" depart="133.608" fromJunction="4way_37" toJunction="4way_16"/>
<trip id="305" depart="134.0475" fromJunction="4way_40" toJunction="3way_21"/>
<trip id="306" depart="134.487" fromJunction="4way_24" toJunction="3way_35"/>
<trip id="307" depart="134.9265" fromJunction="4way_18" toJunction="4way_30"/>
<trip id="308" depart="135.366" fromJunction="4way_12" toJunction="4way_33"/>
<trip id="309" depart="135.8055" fromJunction="4way_17" toJunction="4way_38"/>
<trip id="310" depart="136.245" fromJunction="3way_20" toJunction="3way_35"/>
<trip id="311" depart="136.6845" fromJunction="3way_47" toJunction="3way_3"/>
<trip id="312" depart="137.124" fromJunction="4way_29" toJunction="3way_7"/>
<trip id="313" depart="137.5635" fromJunction="4way_33" toJunction="4way_38"/>
<trip id="314" depart="138.00300000000001" fromJunction="3way_5" toJunction="3way_13"/>
<trip id="315" depart="138.4425" fromJunction="4way_31" toJunction="4way_16"/>
<trip id="316" depart="138.882" fromJunction="4way_26" toJunction="4way_32"/>
<trip id="317" depart="139.32150000000001" fromJunction="3way_21" toJunction="4way_40"/>
<trip id="318" depart="139.761" fromJunction="3way_20" toJunction="3way_21"/>
<trip id="319" depart="140.2005" fromJunction="4way_37" toJunction="4way_10"/>
<trip id="320" depart="140.64" fromJunction="3way_5" toJunction="4way_32"/>
<trip id="321" depart="141.0795" fromJunction="4way_16" toJunction="4way_22"/>
<trip id="322" depart="141.519" fromJunction="3way_27" toJunction="3way_47"/>
<trip id="323" depart="141.9585" fromJunction="3way_3" toJunction="4way_32"/>
<trip id="324" depart="142.398" fromJunction="3way_13" toJunction="4way_15"/>
<trip id="325" depart="142.8375" fromJunction="4way_40" toJunction="4way_8"/>
<trip id="326" depart="143.277" fromJunction="4way_32" toJunction="3way_7"/>
<trip id="327" depart="143.7165" fromJunction="3way_45" toJunction="3way_13"/>
<trip id="328" depart="144.156" fromJunction="3way_21" toJunction="3way_14"/>
<trip id="329" depart="144.5955" fromJunction="3way_35" toJunction="4way_10"/>
<trip id="330" depart="145.035" fromJunction="4way_30" toJunction="4way_24"/>
<trip id="331" depart="145.4745" fromJunction="3way_7" toJunction="3way_21"/>
<trip id="332" depart="145.914" fromJunction="3way_4" toJunction="4way_23"/>
<trip id="333" depart="146.3535" fromJunction="4way_37" toJunction="4way_25"/>
<trip id="334" depart="146.793" fromJunction="4way_36" toJunction="4way_24"/>
<trip id="335" depart="147.2325" fromJunction="3way_14" toJunction="3way_5"/>
<trip id="336" depart="147.672" fromJunction="3way_43" toJunction="3way_14"/>
<trip id="337" depart="148.1115" fromJunction="4way_31" toJunction="3way_2"/>
<trip id="338" depart="148.551" fromJunction="4way_23" toJunction="3way_5"/>
<trip id="339" depart="148.9905" fromJunction="4way_30" toJunction="4way_17"/>
<trip id="340" depart="149.43" fromJunction="3way_5" toJunction="4way_33"/>
<trip id="341" depart="149.8695" fromJunction="3way_2" toJunction="4way_39"/>
<trip id="342" depart="150.309" fromJunction="3way_14" toJunction="4way_36"/>
<trip id="343" depart="150.7485" fromJunction="3way_28" toJunction="4way_29"/>
<trip id="344" depart="151.188" fromJunction="3way_1" toJunction="3way_34"/>
<trip id="345" depart="151.6275" fromJunction="4way_25" toJunction="4way_29"/>
<trip id="346" depart="152.067" fromJunction="3way_47" toJunction="3way_28"/>
<trip id="347" depart="152.5065" fromJunction="3way_5" toJunction="3way_41"/>
<trip id="348" depart="152.946" fromJunction="3way_3" toJunction="3way_46"/>
<trip id="349" depart="153.3855" fromJunction="4way_32" toJunction="3way_3"/>
<trip id="350" depart="153.825" fromJunction="4way_9" toJunction="3way_27"/>
<trip id="351" depart="154.2645" fromJunction="4way_8" toJunction="4way_38"/>
<trip id="352" depart="154.704" fromJunction="3way_34" toJunction="3way_20"/>
<trip id="353" depart="155.1435" fromJunction="4way_29" toJunction="3way_7"/>
<trip id="354" depart="155.583" fromJunction="4way_11" toJunction="3way_35"/>
<trip id="355" depart="156.0225" fromJunction="4way_19" toJunction="4way_31"/>
<trip id="356" depart="156.462" fromJunction="4way_12" toJunction="3way_2"/>
<trip id="357" depart="156.9015" fromJunction="4way_39" toJunction="3way_21"/>
<trip id="358" depart="157.341" fromJunction="4way_40" toJunction="4way_17"/>
<trip id="359" depart="157.7805" fromJunction="3way_28" toJunction="4way_38"/>
<trip id="360" depart="158.22" fromJunction="3way_28" toJunction="4way_22"/>
<trip id="361" depart="158.6595" fromJunction="3way_46" toJunction="3way_28"/>
<trip id="362" depart="159.099" fromJunction="4way_10" toJunction="4way_22"/>
<trip id="363" depart="159.5385" fromJunction="4way_29" toJunction="3way_45"/>
<trip id="364" depart="159.978" fromJunction="3way_27" toJunction="3way_13"/>
<trip id="365" depart="160.4175" fromJunction="4way_33" toJunction="3way_3"/>
<trip id="366" depart="160.857" fromJunction="3way_34" toJunction="3way_1"/>
<trip id="367" depart="161.2965" fromJunction="3way_4" toJunction="4way_23"/>
<trip id="368" depart="161.736" fromJunction="4way_24" toJunction="4way_39"/>
<trip id="369" depart="162.1755" fromJunction="4way_22" toJunction="4way_33"/>
<trip id="370" depart="162.615" fromJunction="4way_36" toJunction="3way_44"/>
<trip id="371" depart="163.0545" fromJunction="4way_29" toJunction="4way_19"/>
<trip id="372" depart="163.494" fromJunction="4way_39" toJunction="3way_45"/>
<trip id="373" depart="163.9335" fromJunction="3way_1" toJunction="3way_28"/>
<trip id="374" depart="164.373" fromJunction="3way_43" toJunction="3way_46"/>
<trip id="375" depart="164.8125" fromJunction="4way_8" toJunction="4way_32"/>
<trip id="376" depart="165.252" fromJunction="3way_35" toJunction="4way_8"/>
<trip id="377" depart="165.6915" fromJunction="4way_26" toJunction="4way_39"/>
<trip id="378" depart="166.131" fromJunction="3way_28" toJunction="4way_40"/>
<trip id="379" depart="166.5705" fromJunction="4way_11" toJunction="4way_33"/>
<trip id="380" depart="167.01" fromJunction="3way_46" toJunction="4way_10"/>
<trip id="381" depart="167.4495" fromJunction="3way_27" toJunction="3way_41"/>
<trip id="382" depart="167.889" fromJunction="3way_44" toJunction="4way_19"/>
<trip id="383" depart="168.3285" fromJunction="4way_22" toJunction="4way_8"/>
<trip id="384" depart="168.768" fromJunction="4way_25" toJunction="4way_11"/>