<?xml version="1.0" encoding="UTF-8"?>
<nodes xmlns:xsi="http://www.w3.org/2001/XMLSchema-instance" xsi:noNamespaceSchemaLocation="http://sumo.dlr.de/xsd/nodes_file.xsd">
    <node id="3way_1" x="100.00" y="0.00" type="traffic_light" tlLayout="opposites"/>
    <node id="3way_10" x="0.00" y="-100.00" type="traffic_light" tlLayout="opposites"/>
    <node id="3way_19" x="900.00" y="-100.00" type="traffic_light" tlLayout="opposites"/>
    <node id="3way_2" x="200.00" y="0.00" type="traffic_light" tlLayout="opposites"/>
    <node id="3way_20" x="0.00" y="-200.00" type="traffic_light" tlLayout="opposites"/>
    <node id="3way_29" x="900.00" y="-200.00" type="traffic_light" tlLayout="opposites"/>
    <node id="3way_3" x="300.00" y="0.00" type="traffic_light" tlLayout="opposites"/>
    <node id="3way_30" x="0.00" y="-300.00" type="traffic_light" tlLayout="opposites"/>
    <node id="3way_39" x="900.00" y="-300.00" type="traffic_light" tlLayout="opposites"/>
    <node id="3way_4" x="400.00" y="0.00" type="traffic_light" tlLayout="opposites"/>
    <node id="3way_40" x="0.00" y="-400.00" type="traffic_light" tlLayout="opposites"/>
    <node id="3way_49" x="900.00" y="-400.00" type="traffic_light" tlLayout="opposites"/>
    <node id="3way_5" x="500.00" y="0.00" type="traffic_light" tlLayout="opposites"/>
    <node id="3way_50" x="0.00" y="-500.00" type="traffic_light" tlLayout="opposites"/>
    <node id="3way_59" x="900.00" y="-500.00" type="traffic_light" tlLayout="opposites"/>
    <node id="3way_6" x="600.00" y="0.00" type="traffic_light" tlLayout="opposites"/>
    <node id="3way_60" x="0.00" y="-600.00" type="traffic_light" tlLayout="opposites"/>
    <node id="3way_69" x="900.00" y="-600.00" type="traffic_light" tlLayout="opposites"/>
    <node id="3way_7" x="700.00" y="0.00" type="traffic_light" tlLayout="opposites"/>
    <node id="3way_70" x="0.00" y="-700.00" type="traffic_light" tlLayout="opposites"/>
    <node id="3way_79" x="900.00" y="-700.00" type="traffic_light" tlLayout="opposites"/>
    <node id="3way_8" x="800.00" y="0.00" type="traffic_light" tlLayout="opposites"/>
    <node id="3way_80" x="0.00" y="-800.00" type="traffic_light" tlLayout="opposites"/>
    <node id="3way_89" x="900.00" y="-800.00" type="traffic_light" tlLayout="opposites"/>
    <node id="3way_91" x="100.00" y="-900.00" type="traffic_light" tlLayout="opposites"/>
    <node id="3way_92" x="200.00" y="-900.00" type="traffic_light" tlLayout="opposites"/>
    <node id="3way_93" x="300.00" y="-900.00" type="traffic_light" tlLayout="opposites"/>
    <node id="3way_94" x="400.00" y="-900.00" type="traffic_light" tlLayout="opposites"/>
    <node id="3way_95" x="500.00" y="-900.00" type="traffic_light" tlLayout="opposites"/>
    <node id="3way_96" x="600.00" y="-900.00" type="traffic_light" tlLayout="opposites"/>
    <node id="3way_97" x="700.00" y="-900.00" type="traffic_light" tlLayout="opposites"/>
    <node id="3way_98" x="800.00" y="-900.00" type="traffic_light" tlLayout="opposites"/>
    <node id="4way_11" x="100.00" y="-100.00" type="traffic_light" tlLayout="opposites"/>
    <node id="4way_12" x="200.00" y="-100.00" type="traffic_light" tlLayout="opposites"/>
    <node id="4way_13" x="300.00" y="-100.00" type="traffic_light" tlLayout="opposites"/>
    <node id="4way_14" x="400.00" y="-100.00" type="traffic_light" tlLayout="opposites"/>
    <node id="4way_15" x="500.00" y="-100.00" type="traffic_light" tlLayout="opposites"/>
    <node id="4way_16" x="600.00" y="-100.00" type="traffic_light" tlLayout="opposites"/>
    <node id="4way_17" x="700.00" y="-100.00" type="traffic_light" tlLayout="opposites"/>
    <node id="4way_18" x="800.00" y="-100.00" type="traffic_light" tlLayout="opposites"/>
    <node id="4way_21" x="100.00" y="-200.00" type="traffic_light" tlLayout="opposites"/>
    <node id="4way_22" x="200.00" y="-200.00" type="traffic_light" tlLayout="opposites"/>
    <node id="4way_23" x="300.00" y="-200.00" type="traffic_light" tlLayout="opposites"/>
    <node id="4way_24" x="400.00" y="-200.00" type="traffic_light" tlLayout="opposites"/>
    <node id="4way_25" x="500.00" y="-200.00" type="traffic_light" tlLayout="opposites"/>
    <node id="4way_26" x="600.00" y="-200.00" type="traffic_light" tlLayout="opposites"/>
    <node id="4way_27" x="700.00" y="-200.00" type="traffic_light" tlLayout="opposites"/>
    <node id="4way_28" x="800.00" y="-200.00" type="traffic_light" tlLayout="opposites"/>
    <node id="4way_31" x="100.00" y="-300.00" type="traffic_light" tlLayout="opposites"/>
    <node id="4way_32" x="200.00" y="-300.00" type="traffic_light" tlLayout="opposites"/>
    <node id="4way_33" x="300.00" y="-300.00" type="traffic_light" tlLayout="opposites"/>
    <node id="4way_34" x="400.00" y="-300.00" type="traffic_light" tlLayout="opposites"/>
    <node id="4way_35" x="500.00" y="-300.00" type="traffic_light" tlLayout="opposites"/>
    <node id="4way_36" x="600.00" y="-300.00" type="traffic_light" tlLayout="opposites"/>
    <node id="4way_37" x="700.00" y="-300.00" type="traffic_light" tlLayout="opposites"/>
    <node id="4way_38" x="800.00" y="-300.00" type="traffic_light" tlLayout="opposites"/>
    <node id="4way_41" x="100.00" y="-400.00" type="traffic_light" tlLayout="opposites"/>
    <node id="4way_42" x="200.00" y="-400.00" type="traffic_light" tlLayout="opposites"/>
    <node id="4way_43" x="300.00" y="-400.00" type="traffic_light" tlLayout="opposites"/>
    <node id="4way_44" x="400.00" y="-400.00" type="traffic_light" tlLayout="opposites"/>
    <node id="4way_45" x="500.00" y="-400.00" type="traffic_light" tlLayout="opposites"/>
    <node id="4way_46" x="600.00" y="-400.00" type="traffic_light" tlLayout="opposites"/>
    <node id="4way_47" x="700.00" y="-400.00" type="traffic_light" tlLayout="opposites"/>
    <node id="4way_48" x="800.00" y="-400.00" type="traffic_light" tlLayout="opposites"/>
    <node id="4way_51" x="100.00" y="-500.00" type="traffic_light" tlLayout="opposites"/>
    <node id="4way_52" x="200.00" y="-500.00" type="traffic_light" tlLayout="opposites"/>
    <node id="4way_53" x="300.00" y="-500.00" type="traffic_light" tlLayout="opposites"/>
    <node id="4way_54" x="400.00" y="-500.00" type="traffic_light" tlLayout="opposites"/>
    <node id="4way_55" x="500.00" y="-500.00" type="traffic_light" tlLayout="opposites"/>
    <node id="4way_56" x="600.00" y="-500.00" type="traffic_light" tlLayout="opposites"/>
    <node id="4way_57" x="700.00" y="-500.00" type="traffic_light" tlLayout="opposites"/>
    <node id="4way_58" x="800.00" y="-500.00" type="traffic_light" tlLayout="opposites"/>
    <node id="4way_61" x="100.00" y="-600.00" type="traffic_light" tlLayout="opposites"/>
    <node id="4way_62" x="200.00" y="-600.00" type="traffic_light" tlLayout="opposites"/>
    <node id="4way_63" x="300.00" y="-600.00" type="traffic_light" tlLayout="opposites"/>
    <node id="4way_64" x="400.00" y="-600.00" type="traffic_light" tlLayout="opposites"/>
    <node id="4way_65" x="500.00" y="-600.00" type="traffic_light" tlLayout="opposites"/>
    <node id="4way_66" x="600.00" y="-600.00" type="traffic_light" tlLayout="opposites"/>
    <node id="4way_67" x="700.00" y="-600.00" type="traffic_light" tlLayout="opposites"/>
    <node id="4way_68" x="800.00" y="-600.00" type="traffic_light" tlLayout="opposites"/>
    <node id="4way_71" x="100.00" y="-700.00" type="traffic_light" tlLayout="opposites"/>
    <node id="4way_72" x="200.00" y="-700.00" type="traffic_light" tlLayout="opposites"/>
    <node id="4way_73" x="300.00" y="-700.00" type="traffic_light" tlLayout="opposites"/>
    <node id="4way_74" x="400.00" y="-700.00" type="traffic_light" tlLayout="opposites"/>
    <node id="4way_75" x="500.00" y="-700.00" type="traffic_light" tlLayout="opposites"/>
    <node id="4way_76" x="600.00" y="-700.00" type="traffic_light" tlLayout="opposites"/>
    <node id="4way_77" x="700.00" y="-700.00" type="traffic_light" tlLayout="opposites"/>
    <node id="4way_78" x="800.00" y="-700.00" type="traffic_light" tlLayout="opposites"/>
    <node id="4way_81" x="100.00" y="-800.00" type="traffic_light" tlLayout="opposites"/>
    <node id="4way_82" x="200.00" y="-800.00" type="traffic_light" tlLayout="opposites"/>
    <node id="4way_83" x="300.00" y="-800.00" type="traffic_light" tlLayout="opposites"/>
    <node id="4way_84" x="400.00" y="-800.00" type="traffic_light" tlLayout="opposites"/>
    <node id="4way_85" x="500.00" y="-800.00" type="traffic_light" tlLayout="opposites"/>
    <node id="4way_86" x="600.00" y="-800.00" type="traffic_light" tlLayout="opposites"/>
    <node id="4way_87" x="700.00" y="-800.00" type="traffic_light" tlLayout="opposites"/>
    <node id="4way_88" x="800.00" y="-800.00" type="traffic_light" tlLayout="opposites"/>
</nodes>
