<?xml version="1.0" encoding="UTF-8"?>

<!-- generated on 2023-11-28 22:24:28 by Eclipse SUMO duarouter Version 1.12.0
<configuration xmlns:xsi="http://www.w3.org/2001/XMLSchema-instance" xsi:noNamespaceSchemaLocation="http://sumo.dlr.de/xsd/duarouterConfiguration.xsd">

    <input>
        <net-file value="sapporo_HY.net.xml"/>
        <route-files value="sapporo_HY.trips.xml"/>
        <junction-taz value="true"/>
    </input>

    <output>
        <output-file value="sapporo_HY.rou.xml"/>
        <alternatives-output value="sapporo_HY.rou.alt.xml"/>
    </output>

    <processing>
        <weights.random-factor value="1.2"/>
    </processing>

    <time>
        <begin value="0"/>
        <end value="7200"/>
    </time>

    <report>
        <verbose value="true"/>
    </report>

    <random_number>
        <seed value="5"/>
    </random_number>

</configuration>
-->

<routes xmlns:xsi="http://www.w3.org/2001/XMLSchema-instance" xsi:noNamespaceSchemaLocation="http://sumo.dlr.de/xsd/routes_file.xsd">
    <vehicle id="0" depart="0.00">
        <route edges="86_4way_E07to4way_D07 83_4way_D07to4way_D06 33_4way_D06to3way_D05 32_3way_D05to4way_D04"/>
    </vehicle>
    <vehicle id="1" depart="0.41">
        <route edges="32_4way_D04to3way_D05 33_3way_D05to4way_D06 83_4way_D06to4way_D07 85_4way_D07to4way_D08"/>
    </vehicle>
    <vehicle id="2" depart="0.82">
        <route edges="40_3way_E02to4way_E03 91_4way_E03to4way_E04 93_4way_E04to4way_E05 95_4way_E05to4way_E06 97_4way_E06to4way_E07 99_4way_E07to4way_E08 101_4way_E08to4way_E09 89_4way_E09to4way_D09 79_4way_D09to4way_C09 74_4way_C09to4way_B09"/>
    </vehicle>
    <vehicle id="3" depart="1.23">
        <route edges="107_4way_G02to4way_F02 41_4way_F02to3way_E02 40_3way_E02to4way_E03 81_4way_E03to4way_D03 21_4way_D03to3way_C03"/>
    </vehicle>
    <vehicle id="4" depart="1.64">
        <route edges="24_4way_B06to3way_C06 26_3way_C06to4way_D06 84_4way_D06to4way_E06 98_4way_E06to4way_F06 115_4way_F06to4way_G06 126_4way_G06to4way_G07"/>
    </vehicle>
    <vehicle id="5" depart="2.05">
        <route edges="81_4way_D03to4way_E03 92_4way_E03to4way_F03 108_4way_F03to4way_F04"/>
    </vehicle>
    <vehicle id="6" depart="2.46">
        <route edges="111_4way_G04to4way_F04 94_4way_F04to4way_E04 82_4way_E04to4way_D04 32_4way_D04to3way_D05"/>
    </vehicle>
    <vehicle id="7" depart="2.87">
        <route edges="12_3way_B10to3way_A09"/>
    </vehicle>
    <vehicle id="8" depart="3.28">
        <route edges="98_4way_F06to4way_E06 84_4way_E06to4way_D06 26_4way_D06to3way_C06 24_3way_C06to4way_B06 7_4way_B06to3way_A06 4_3way_A06to3way_A05"/>
    </vehicle>
    <vehicle id="9" depart="3.69">
        <route edges="118_4way_F09to4way_F08 116_4way_F08to4way_F07 114_4way_F07to4way_F06 112_4way_F06to4way_F05 110_4way_F05to4way_F04 108_4way_F04to4way_F03"/>
    </vehicle>
    <vehicle id="10" depart="4.10">
        <route edges="111_4way_F04to4way_G04 124_4way_G04to4way_G05 125_4way_G05to4way_G06 126_4way_G06to4way_G07 127_4way_G07to4way_G08"/>
    </vehicle>
    <vehicle id="11" depart="4.51">
        <route edges="108_4way_F03to4way_F04 110_4way_F04to4way_F05 112_4way_F05to4way_F06 98_4way_F06to4way_E06 84_4way_E06to4way_D06 26_4way_D06to3way_C06"/>
    </vehicle>
    <vehicle id="12" depart="4.92">
        <route edges="40_3way_E02to4way_E03 91_4way_E03to4way_E04 93_4way_E04to4way_E05 95_4way_E05to4way_E06 97_4way_E06to4way_E07 99_4way_E07to4way_E08 101_4way_E08to4way_E09 43_4way_E09to3way_E10 35_3way_E10to3way_D10"/>
    </vehicle>
    <vehicle id="13" depart="5.33">
        <route edges="126_4way_G06to4way_G07 127_4way_G07to4way_G08 128_4way_G08to4way_G09 51_4way_G09to3way_G10 46_3way_G10to3way_F10"/>
    </vehicle>
    <vehicle id="14" depart="5.74">
        <route edges="70_4way_B08to4way_B07 69_4way_B07to4way_B06 24_4way_B06to3way_C06 26_3way_C06to4way_D06 33_4way_D06to3way_D05 32_3way_D05to4way_D04 80_4way_D04to4way_D03 30_4way_D03to3way_D01"/>
    </vehicle>
    <vehicle id="15" depart="6.15">
        <route edges="107_4way_F02to4way_G02 55_4way_G02to3way_H02"/>
    </vehicle>
    <vehicle id="16" depart="6.56">
        <route edges="32_3way_D05to4way_D04 23_4way_D04to3way_C04"/>
    </vehicle>
    <vehicle id="17" depart="6.97">
        <route edges="79_4way_D09to4way_C09 74_4way_C09to4way_B09 13_4way_B09to3way_A09 10_3way_A09to3way_A08 8_3way_A08to3way_A07 6_3way_A07to3way_A06 4_3way_A06to3way_A05"/>
    </vehicle>
    <vehicle id="18" depart="7.38">
        <route edges="96_4way_E05to4way_F05 113_4way_F05to4way_G05"/>
    </vehicle>
    <vehicle id="19" depart="7.79">
        <route edges="20_3way_C03to3way_C04 22_3way_C04to4way_B04"/>
    </vehicle>
    <vehicle id="20" depart="8.20">
        <route edges="8_3way_A08to3way_A07 6_3way_A07to3way_A06 7_3way_A06to4way_B06 24_4way_B06to3way_C06 26_3way_C06to4way_D06 84_4way_D06to4way_E06"/>
    </vehicle>
    <vehicle id="21" depart="8.61">
        <route edges="43_3way_E10to4way_E09 101_4way_E09to4way_E08 99_4way_E08to4way_E07 100_4way_E07to4way_F07 117_4way_F07to4way_G07 65_4way_G07to3way_H07 62_3way_H07to3way_H06"/>
    </vehicle>
    <vehicle id="22" depart="9.02">
        <route edges="16_3way_B05to4way_B04 15_4way_B04to3way_B03 14_3way_B03to3way_C03 21_3way_C03to4way_D03 81_4way_D03to4way_E03 92_4way_E03to4way_F03 106_4way_F03to4way_F02 104_4way_F02to4way_F01 45_4way_F01to3way_F00"/>
    </vehicle>
    <vehicle id="23" depart="9.43">
        <route edges="21_3way_C03to4way_D03 80_4way_D03to4way_D04 32_4way_D04to3way_D05 33_3way_D05to4way_D06"/>
    </vehicle>
    <vehicle id="24" depart="9.84">
        <route edges="28_3way_C10to4way_C09 79_4way_C09to4way_D09 89_4way_D09to4way_E09 103_4way_E09to4way_F09 120_4way_F09to4way_G09"/>
    </vehicle>
    <vehicle id="25" depart="10.25">
        <route edges="51_3way_G10to4way_G09 128_4way_G09to4way_G08 67_4way_G08to3way_H08 64_3way_H08to3way_H07 62_3way_H07to3way_H06"/>
    </vehicle>
    <vehicle id="26" depart="10.66">
        <route edges="57_3way_H03to4way_G03 109_4way_G03to4way_F03 92_4way_F03to4way_E03"/>
    </vehicle>
    <vehicle id="27" depart="11.07">
        <route edges="58_3way_H04to3way_H05 60_3way_H05to3way_H06 63_3way_H06to4way_G06 115_4way_G06to4way_F06 98_4way_F06to4way_E06 84_4way_E06to4way_D06 26_4way_D06to3way_C06"/>
    </vehicle>
    <vehicle id="28" depart="11.48">
        <route edges="27_3way_C10to3way_D10 35_3way_D10to3way_E10 42_3way_E10to3way_F10 46_3way_F10to3way_G10"/>
    </vehicle>
    <vehicle id="29" depart="11.89">
        <route edges="43_3way_E10to4way_E09 101_4way_E09to4way_E08 99_4way_E08to4way_E07 97_4way_E07to4way_E06 95_4way_E06to4way_E05 93_4way_E05to4way_E04 91_4way_E04to4way_E03"/>
    </vehicle>
    <vehicle id="30" depart="12.30">
        <route edges="17_3way_B05to4way_B06 69_4way_B06to4way_B07 71_4way_B07to4way_C07 76_4way_C07to4way_D07 86_4way_D07to4way_E07 100_4way_E07to4way_F07 117_4way_F07to4way_G07 65_4way_G07to3way_H07"/>
    </vehicle>
    <vehicle id="31" depart="12.71">
        <route edges="19_3way_B10to4way_B09 72_4way_B09to4way_B08 70_4way_B08to4way_B07 69_4way_B07to4way_B06 24_4way_B06to3way_C06 26_3way_C06to4way_D06 84_4way_D06to4way_E06 98_4way_E06to4way_F06"/>
    </vehicle>
    <vehicle id="32" depart="13.12">
        <route edges="19_3way_B10to4way_B09 72_4way_B09to4way_B08 70_4way_B08to4way_B07 71_4way_B07to4way_C07 76_4way_C07to4way_D07 86_4way_D07to4way_E07 100_4way_E07to4way_F07"/>
    </vehicle>
    <vehicle id="33" depart="13.53">
        <route edges="26_3way_C06to4way_D06 84_4way_D06to4way_E06 98_4way_E06to4way_F06 115_4way_F06to4way_G06 126_4way_G06to4way_G07 127_4way_G07to4way_G08"/>
    </vehicle>
    <vehicle id="34" depart="13.94">
        <route edges="88_4way_D08to4way_E08 102_4way_E08to4way_F08 119_4way_F08to4way_G08"/>
    </vehicle>
    <vehicle id="35" depart="14.35">
        <route edges="7_3way_A06to4way_B06 24_4way_B06to3way_C06 26_3way_C06to4way_D06 84_4way_D06to4way_E06 97_4way_E06to4way_E07 99_4way_E07to4way_E08 101_4way_E08to4way_E09"/>
    </vehicle>
    <vehicle id="36" depart="14.76">
        <route edges="35_3way_D10to3way_E10 42_3way_E10to3way_F10 47_3way_F10to4way_F09 118_4way_F09to4way_F08 116_4way_F08to4way_F07 114_4way_F07to4way_F06 112_4way_F06to4way_F05 110_4way_F05to4way_F04 108_4way_F04to4way_F03 106_4way_F03to4way_F02 104_4way_F02to4way_F01 105_4way_F01to4way_G01 53_4way_G01to3way_H01"/>
    </vehicle>
    <vehicle id="37" depart="15.17">
        <route edges="36_3way_D10to4way_D09 87_4way_D09to4way_D08 85_4way_D08to4way_D07 83_4way_D07to4way_D06 33_4way_D06to3way_D05 32_3way_D05to4way_D04 80_4way_D04to4way_D03 30_4way_D03to3way_D01 29_3way_D01to3way_E00 37_3way_E00to3way_F00 44_3way_F00to3way_G00"/>
    </vehicle>
    <vehicle id="38" depart="15.58">
        <route edges="70_4way_B08to4way_B07 69_4way_B07to4way_B06 17_4way_B06to3way_B05 16_3way_B05to4way_B04 22_4way_B04to3way_C04 23_3way_C04to4way_D04 80_4way_D04to4way_D03 30_4way_D03to3way_D01 29_3way_D01to3way_E00 37_3way_E00to3way_F00"/>
    </vehicle>
    <vehicle id="39" depart="15.99">
        <route edges="95_4way_E05to4way_E06 97_4way_E06to4way_E07 99_4way_E07to4way_E08 88_4way_E08to4way_D08 78_4way_D08to4way_C08 73_4way_C08to4way_B08 11_4way_B08to3way_A08"/>
    </vehicle>
    <vehicle id="40" depart="16.40">
        <route edges="54_3way_H02to3way_H03 57_3way_H03to4way_G03 109_4way_G03to4way_F03 92_4way_F03to4way_E03 81_4way_E03to4way_D03 80_4way_D03to4way_D04 32_4way_D04to3way_D05"/>
    </vehicle>
    <vehicle id="41" depart="16.81">
        <route edges="19_3way_B10to4way_B09 72_4way_B09to4way_B08 73_4way_B08to4way_C08 78_4way_C08to4way_D08 85_4way_D08to4way_D07 83_4way_D07to4way_D06 33_4way_D06to3way_D05 32_3way_D05to4way_D04 80_4way_D04to4way_D03 30_4way_D03to3way_D01"/>
    </vehicle>
    <vehicle id="42" depart="17.22">
        <route edges="124_4way_G04to4way_G05 125_4way_G05to4way_G06 115_4way_G06to4way_F06 98_4way_F06to4way_E06 84_4way_E06to4way_D06"/>
    </vehicle>
    <vehicle id="43" depart="17.63">
        <route edges="94_4way_E04to4way_F04 108_4way_F04to4way_F03 106_4way_F03to4way_F02 104_4way_F02to4way_F01 45_4way_F01to3way_F00"/>
    </vehicle>
    <vehicle id="44" depart="18.04">
        <route edges="99_4way_E07to4way_E08 101_4way_E08to4way_E09 43_4way_E09to3way_E10"/>
    </vehicle>
    <vehicle id="45" depart="18.45">
        <route edges="64_3way_H08to3way_H07 62_3way_H07to3way_H06 60_3way_H06to3way_H05 58_3way_H05to3way_H04 56_3way_H04to3way_H03 54_3way_H03to3way_H02 52_3way_H02to3way_H01"/>
    </vehicle>
    <vehicle id="46" depart="18.86">
        <route edges="4_3way_A05to3way_A06 6_3way_A06to3way_A07 9_3way_A07to4way_B07 71_4way_B07to4way_C07 76_4way_C07to4way_D07"/>
    </vehicle>
    <vehicle id="47" depart="19.27">
        <route edges="3_3way_A04to4way_B04 22_4way_B04to3way_C04 23_3way_C04to4way_D04 82_4way_D04to4way_E04 94_4way_E04to4way_F04 110_4way_F04to4way_F05 112_4way_F05to4way_F06"/>
    </vehicle>
    <vehicle id="48" depart="19.68">
        <route edges="55_3way_H02to4way_G02 107_4way_G02to4way_F02 41_4way_F02to3way_E02 40_3way_E02to4way_E03 91_4way_E03to4way_E04"/>
    </vehicle>
    <vehicle id="49" depart="20.09">
        <route edges="127_4way_G07to4way_G08 119_4way_G08to4way_F08 102_4way_F08to4way_E08"/>
    </vehicle>
    <vehicle id="50" depart="20.50">
        <route edges="33_4way_D06to3way_D05 32_3way_D05to4way_D04 82_4way_D04to4way_E04 94_4way_E04to4way_F04 111_4way_F04to4way_G04 59_4way_G04to3way_H04"/>
    </vehicle>
    <vehicle id="51" depart="20.91">
        <route edges="83_4way_D06to4way_D07"/>
    </vehicle>
    <vehicle id="52" depart="21.32">
        <route edges="125_4way_G06to4way_G05 61_4way_G05to3way_H05"/>
    </vehicle>
    <vehicle id="53" depart="21.73">
        <route edges="114_4way_F07to4way_F06 112_4way_F06to4way_F05 110_4way_F05to4way_F04 94_4way_F04to4way_E04 82_4way_E04to4way_D04 23_4way_D04to3way_C04"/>
    </vehicle>
    <vehicle id="54" depart="22.14">
        <route edges="49_3way_G00to4way_G01 121_4way_G01to4way_G02 122_4way_G02to4way_G03 123_4way_G03to4way_G04 124_4way_G04to4way_G05 125_4way_G05to4way_G06 115_4way_G06to4way_F06 98_4way_F06to4way_E06"/>
    </vehicle>
    <vehicle id="55" depart="22.55">
        <route edges="71_4way_B07to4way_C07 76_4way_C07to4way_D07 86_4way_D07to4way_E07 100_4way_E07to4way_F07 114_4way_F07to4way_F06 112_4way_F06to4way_F05"/>
    </vehicle>
    <vehicle id="56" depart="22.96">
        <route edges="33_4way_D06to3way_D05 32_3way_D05to4way_D04 80_4way_D04to4way_D03 30_4way_D03to3way_D01 31_3way_D01to4way_E01 90_4way_E01to4way_F01 105_4way_F01to4way_G01"/>
    </vehicle>
    <vehicle id="57" depart="23.37">
        <route edges="93_4way_E05to4way_E04 91_4way_E04to4way_E03 40_4way_E03to3way_E02 39_3way_E02to4way_E01 90_4way_E01to4way_F01 105_4way_F01to4way_G01"/>
    </vehicle>
    <vehicle id="58" depart="23.78">
        <route edges="77_4way_C09to4way_C08 78_4way_C08to4way_D08 88_4way_D08to4way_E08"/>
    </vehicle>
    <vehicle id="59" depart="24.19">
        <route edges="41_3way_E02to4way_F02 107_4way_F02to4way_G02 122_4way_G02to4way_G03 123_4way_G03to4way_G04 124_4way_G04to4way_G05 125_4way_G05to4way_G06"/>
    </vehicle>
    <vehicle id="60" depart="24.60">
        <route edges="87_4way_D08to4way_D09 79_4way_D09to4way_C09 74_4way_C09to4way_B09"/>
    </vehicle>
    <vehicle id="61" depart="25.01">
        <route edges="44_3way_G00to3way_F00 37_3way_F00to3way_E00 29_3way_E00to3way_D01 30_3way_D01to4way_D03 21_4way_D03to3way_C03 14_3way_C03to3way_B03 2_3way_B03to3way_A04 1_3way_A04to3way_A05"/>
    </vehicle>
    <vehicle id="62" depart="25.42">
        <route edges="52_3way_H01to3way_H02 54_3way_H02to3way_H03 57_3way_H03to4way_G03 109_4way_G03to4way_F03 92_4way_F03to4way_E03"/>
    </vehicle>
    <vehicle id="63" depart="25.83">
        <route edges="74_4way_B09to4way_C09 79_4way_C09to4way_D09"/>
    </vehicle>
    <vehicle id="64" depart="26.24">
        <route edges="49_3way_G00to4way_G01 121_4way_G01to4way_G02 107_4way_G02to4way_F02 41_4way_F02to3way_E02 40_3way_E02to4way_E03 91_4way_E03to4way_E04 93_4way_E04to4way_E05 95_4way_E05to4way_E06 97_4way_E06to4way_E07 99_4way_E07to4way_E08 101_4way_E08to4way_E09 43_4way_E09to3way_E10"/>
    </vehicle>
    <vehicle id="65" depart="26.65">
        <route edges="83_4way_D07to4way_D06"/>
    </vehicle>
    <vehicle id="66" depart="27.06">
        <route edges="91_4way_E03to4way_E04 93_4way_E04to4way_E05 95_4way_E05to4way_E06 84_4way_E06to4way_D06"/>
    </vehicle>
    <vehicle id="67" depart="27.47">
        <route edges="21_3way_C03to4way_D03 81_4way_D03to4way_E03 40_4way_E03to3way_E02"/>
    </vehicle>
    <vehicle id="68" depart="27.88">
        <route edges="16_3way_B05to4way_B04 15_4way_B04to3way_B03 14_3way_B03to3way_C03 21_3way_C03to4way_D03 81_4way_D03to4way_E03 92_4way_E03to4way_F03 109_4way_F03to4way_G03 122_4way_G03to4way_G02"/>
    </vehicle>
    <vehicle id="69" depart="28.29">
        <route edges="107_4way_G02to4way_F02 41_4way_F02to3way_E02 40_3way_E02to4way_E03 81_4way_E03to4way_D03 21_4way_D03to3way_C03"/>
    </vehicle>
    <vehicle id="70" depart="28.70">
        <route edges="95_4way_E06to4way_E05 96_4way_E05to4way_F05"/>
    </vehicle>
    <vehicle id="71" depart="29.11">
        <route edges="124_4way_G04to4way_G05 125_4way_G05to4way_G06 126_4way_G06to4way_G07 127_4way_G07to4way_G08 128_4way_G08to4way_G09 51_4way_G09to3way_G10 46_3way_G10to3way_F10 42_3way_F10to3way_E10 35_3way_E10to3way_D10 27_3way_D10to3way_C10"/>
    </vehicle>
    <vehicle id="72" depart="29.52">
        <route edges="120_4way_G09to4way_F09 103_4way_F09to4way_E09 101_4way_E09to4way_E08 99_4way_E08to4way_E07"/>
    </vehicle>
    <vehicle id="73" depart="29.93">
        <route edges="47_4way_F09to3way_F10"/>
    </vehicle>
    <vehicle id="74" depart="30.34">
        <route edges="89_4way_D09to4way_E09 103_4way_E09to4way_F09 120_4way_F09to4way_G09 51_4way_G09to3way_G10"/>
    </vehicle>
    <vehicle id="75" depart="30.75">
        <route edges="118_4way_F08to4way_F09 47_4way_F09to3way_F10 42_3way_F10to3way_E10 35_3way_E10to3way_D10"/>
    </vehicle>
    <vehicle id="76" depart="31.16">
        <route edges="34_3way_D05to4way_E05 96_4way_E05to4way_F05"/>
    </vehicle>
    <vehicle id="77" depart="31.57">
        <route edges="11_3way_A08to4way_B08"/>
    </vehicle>
    <vehicle id="78" depart="31.98">
        <route edges="23_3way_C04to4way_D04 82_4way_D04to4way_E04 93_4way_E04to4way_E05 95_4way_E05to4way_E06"/>
    </vehicle>
    <vehicle id="79" depart="32.39">
        <route edges="103_4way_F09to4way_E09 101_4way_E09to4way_E08 99_4way_E08to4way_E07"/>
    </vehicle>
    <vehicle id="80" depart="32.80">
        <route edges="119_4way_F08to4way_G08"/>
    </vehicle>
    <vehicle id="81" depart="33.21">
        <route edges="3_4way_B04to3way_A04"/>
    </vehicle>
    <vehicle id="82" depart="33.62">
        <route edges="68_3way_H09to4way_G09 120_4way_G09to4way_F09 103_4way_F09to4way_E09 101_4way_E09to4way_E08"/>
    </vehicle>
    <vehicle id="83" depart="34.03">
        <route edges="9_3way_A07to4way_B07 71_4way_B07to4way_C07 76_4way_C07to4way_D07 83_4way_D07to4way_D06 33_4way_D06to3way_D05 32_3way_D05to4way_D04 80_4way_D04to4way_D03 30_4way_D03to3way_D01"/>
    </vehicle>
    <vehicle id="84" depart="34.44">
        <route edges="4_3way_A05to3way_A06 7_3way_A06to4way_B06 24_4way_B06to3way_C06 26_3way_C06to4way_D06 84_4way_D06to4way_E06 98_4way_E06to4way_F06 115_4way_F06to4way_G06 63_4way_G06to3way_H06 62_3way_H06to3way_H07"/>
    </vehicle>
    <vehicle id="85" depart="34.85">
        <route edges="61_3way_H05to4way_G05 113_4way_G05to4way_F05 110_4way_F05to4way_F04"/>
    </vehicle>
    <vehicle id="86" depart="35.26">
        <route edges="111_4way_G04to4way_F04 94_4way_F04to4way_E04 82_4way_E04to4way_D04 23_4way_D04to3way_C04 22_3way_C04to4way_B04 15_4way_B04to3way_B03"/>
    </vehicle>
    <vehicle id="87" depart="35.67">
        <route edges="7_3way_A06to4way_B06 24_4way_B06to3way_C06 26_3way_C06to4way_D06 84_4way_D06to4way_E06"/>
    </vehicle>
    <vehicle id="88" depart="36.08">
        <route edges="36_4way_D09to3way_D10 35_3way_D10to3way_E10 42_3way_E10to3way_F10 46_3way_F10to3way_G10"/>
    </vehicle>
    <vehicle id="89" depart="36.49">
        <route edges="58_3way_H04to3way_H05 60_3way_H05to3way_H06 63_3way_H06to4way_G06 115_4way_G06to4way_F06 98_4way_F06to4way_E06 84_4way_E06to4way_D06"/>
    </vehicle>
    <vehicle id="90" depart="36.90">
        <route edges="87_4way_D09to4way_D08 85_4way_D08to4way_D07 83_4way_D07to4way_D06 33_4way_D06to3way_D05 34_3way_D05to4way_E05 96_4way_E05to4way_F05 113_4way_F05to4way_G05"/>
    </vehicle>
    <vehicle id="91" depart="37.31">
        <route edges="83_4way_D07to4way_D06 33_4way_D06to3way_D05 32_3way_D05to4way_D04 80_4way_D04to4way_D03"/>
    </vehicle>
    <vehicle id="92" depart="37.72">
        <route edges="45_3way_F00to4way_F01 104_4way_F01to4way_F02 106_4way_F02to4way_F03 108_4way_F03to4way_F04 110_4way_F04to4way_F05 112_4way_F05to4way_F06 114_4way_F06to4way_F07 116_4way_F07to4way_F08 102_4way_F08to4way_E08"/>
    </vehicle>
    <vehicle id="93" depart="38.13">
        <route edges="62_3way_H06to3way_H07 65_3way_H07to4way_G07 117_4way_G07to4way_F07 100_4way_F07to4way_E07 86_4way_E07to4way_D07 76_4way_D07to4way_C07 71_4way_C07to4way_B07"/>
    </vehicle>
    <vehicle id="94" depart="38.54">
        <route edges="61_4way_G05to3way_H05 60_3way_H05to3way_H06 62_3way_H06to3way_H07 64_3way_H07to3way_H08"/>
    </vehicle>
    <vehicle id="95" depart="38.95">
        <route edges="78_4way_C08to4way_D08 88_4way_D08to4way_E08 101_4way_E08to4way_E09"/>
    </vehicle>
    <vehicle id="96" depart="39.36">
        <route edges="56_3way_H03to3way_H04 58_3way_H04to3way_H05"/>
    </vehicle>
    <vehicle id="97" depart="39.77">
        <route edges="14_3way_C03to3way_B03 2_3way_B03to3way_A04 1_3way_A04to3way_A05 4_3way_A05to3way_A06 6_3way_A06to3way_A07 8_3way_A07to3way_A08"/>
    </vehicle>
    <vehicle id="98" depart="40.18">
        <route edges="95_4way_E06to4way_E05 93_4way_E05to4way_E04 91_4way_E04to4way_E03 40_4way_E03to3way_E02 39_3way_E02to4way_E01 38_4way_E01to3way_E00 37_3way_E00to3way_F00"/>
    </vehicle>
    <vehicle id="99" depart="40.59">
        <route edges="68_3way_H09to4way_G09 120_4way_G09to4way_F09 103_4way_F09to4way_E09 89_4way_E09to4way_D09 79_4way_D09to4way_C09 77_4way_C09to4way_C08 75_4way_C08to4way_C07 25_4way_C07to3way_C06 24_3way_C06to4way_B06"/>
    </vehicle>
    <vehicle id="100" depart="41.00">
        <route edges="8_3way_A08to3way_A07 6_3way_A07to3way_A06 4_3way_A06to3way_A05"/>
    </vehicle>
    <vehicle id="101" depart="41.41">
        <route edges="23_3way_C04to4way_D04 82_4way_D04to4way_E04"/>
    </vehicle>
    <vehicle id="102" depart="41.82">
        <route edges="122_4way_G02to4way_G03 109_4way_G03to4way_F03 92_4way_F03to4way_E03 81_4way_E03to4way_D03"/>
    </vehicle>
    <vehicle id="103" depart="42.23">
        <route edges="62_3way_H06to3way_H07 64_3way_H07to3way_H08 66_3way_H08to3way_H09 68_3way_H09to4way_G09"/>
    </vehicle>
    <vehicle id="104" depart="42.64">
        <route edges="57_3way_H03to4way_G03 109_4way_G03to4way_F03 92_4way_F03to4way_E03"/>
    </vehicle>
    <vehicle id="105" depart="43.05">
        <route edges="90_4way_F01to4way_E01 31_4way_E01to3way_D01 30_3way_D01to4way_D03 21_4way_D03to3way_C03 14_3way_C03to3way_B03 2_3way_B03to3way_A04 1_3way_A04to3way_A05"/>
    </vehicle>
    <vehicle id="106" depart="43.46">
        <route edges="17_4way_B06to3way_B05 16_3way_B05to4way_B04 15_4way_B04to3way_B03 14_3way_B03to3way_C03 21_3way_C03to4way_D03 30_4way_D03to3way_D01 29_3way_D01to3way_E00"/>
    </vehicle>
    <vehicle id="107" depart="43.87">
        <route edges="114_4way_F06to4way_F07 100_4way_F07to4way_E07 86_4way_E07to4way_D07"/>
    </vehicle>
    <vehicle id="108" depart="44.28">
        <route edges="103_4way_F09to4way_E09 101_4way_E09to4way_E08 99_4way_E08to4way_E07 97_4way_E07to4way_E06 95_4way_E06to4way_E05 93_4way_E05to4way_E04 91_4way_E04to4way_E03 40_4way_E03to3way_E02 39_3way_E02to4way_E01"/>
    </vehicle>
    <vehicle id="109" depart="44.69">
        <route edges="108_4way_F04to4way_F03 106_4way_F03to4way_F02 107_4way_F02to4way_G02 55_4way_G02to3way_H02"/>
    </vehicle>
    <vehicle id="110" depart="45.10">
        <route edges="63_4way_G06to3way_H06 62_3way_H06to3way_H07 64_3way_H07to3way_H08"/>
    </vehicle>
    <vehicle id="111" depart="45.51">
        <route edges="63_3way_H06to4way_G06 115_4way_G06to4way_F06 98_4way_F06to4way_E06 95_4way_E06to4way_E05"/>
    </vehicle>
    <vehicle id="112" depart="45.92">
        <route edges="99_4way_E08to4way_E07 97_4way_E07to4way_E06 98_4way_E06to4way_F06 115_4way_F06to4way_G06"/>
    </vehicle>
    <vehicle id="113" depart="46.33">
        <route edges="60_3way_H06to3way_H05 58_3way_H05to3way_H04 56_3way_H04to3way_H03"/>
    </vehicle>
    <vehicle id="114" depart="46.74">
        <route edges="1_3way_A05to3way_A04 3_3way_A04to4way_B04 22_4way_B04to3way_C04 23_3way_C04to4way_D04 80_4way_D04to4way_D03 30_4way_D03to3way_D01"/>
    </vehicle>
    <vehicle id="115" depart="47.15">
        <route edges="72_4way_B09to4way_B08 70_4way_B08to4way_B07 71_4way_B07to4way_C07 76_4way_C07to4way_D07 86_4way_D07to4way_E07 100_4way_E07to4way_F07 117_4way_F07to4way_G07 65_4way_G07to3way_H07"/>
    </vehicle>
    <vehicle id="116" depart="47.56">
        <route edges="24_3way_C06to4way_B06 17_4way_B06to3way_B05"/>
    </vehicle>
    <vehicle id="117" depart="47.97">
        <route edges="83_4way_D07to4way_D06 33_4way_D06to3way_D05 32_3way_D05to4way_D04 80_4way_D04to4way_D03 81_4way_D03to4way_E03 92_4way_E03to4way_F03 109_4way_F03to4way_G03 57_4way_G03to3way_H03 54_3way_H03to3way_H02"/>
    </vehicle>
    <vehicle id="118" depart="48.38">
        <route edges="36_3way_D10to4way_D09 89_4way_D09to4way_E09 103_4way_E09to4way_F09"/>
    </vehicle>
    <vehicle id="119" depart="48.79">
        <route edges="43_3way_E10to4way_E09 101_4way_E09to4way_E08 99_4way_E08to4way_E07 97_4way_E07to4way_E06 95_4way_E06to4way_E05 93_4way_E05to4way_E04 91_4way_E04to4way_E03 40_4way_E03to3way_E02 39_3way_E02to4way_E01 31_4way_E01to3way_D01"/>
    </vehicle>
    <vehicle id="120" depart="49.20">
        <route edges="71_4way_B07to4way_C07 76_4way_C07to4way_D07 86_4way_D07to4way_E07"/>
    </vehicle>
    <vehicle id="121" depart="49.61">
        <route edges="64_3way_H08to3way_H07 62_3way_H07to3way_H06 60_3way_H06to3way_H05 61_3way_H05to4way_G05 113_4way_G05to4way_F05 96_4way_F05to4way_E05 34_4way_E05to3way_D05"/>
    </vehicle>
    <vehicle id="122" depart="50.02">
        <route edges="77_4way_C08to4way_C09 28_4way_C09to3way_C10 27_3way_C10to3way_D10 35_3way_D10to3way_E10 42_3way_E10to3way_F10"/>
    </vehicle>
    <vehicle id="123" depart="50.43">
        <route edges="124_4way_G05to4way_G04 111_4way_G04to4way_F04 94_4way_F04to4way_E04 82_4way_E04to4way_D04 23_4way_D04to3way_C04 22_3way_C04to4way_B04"/>
    </vehicle>
    <vehicle id="124" depart="50.84">
        <route edges="101_4way_E09to4way_E08 99_4way_E08to4way_E07 97_4way_E07to4way_E06 95_4way_E06to4way_E05 93_4way_E05to4way_E04 91_4way_E04to4way_E03 40_4way_E03to3way_E02 41_3way_E02to4way_F02"/>
    </vehicle>
    <vehicle id="125" depart="51.25">
        <route edges="18_3way_B10to3way_C10 27_3way_C10to3way_D10 35_3way_D10to3way_E10 42_3way_E10to3way_F10 46_3way_F10to3way_G10 51_3way_G10to4way_G09 128_4way_G09to4way_G08 127_4way_G08to4way_G07 126_4way_G07to4way_G06 125_4way_G06to4way_G05 124_4way_G05to4way_G04 123_4way_G04to4way_G03"/>
    </vehicle>
    <vehicle id="126" depart="51.66">
        <route edges="83_4way_D07to4way_D06 33_4way_D06to3way_D05 32_3way_D05to4way_D04"/>
    </vehicle>
    <vehicle id="127" depart="52.07">
        <route edges="49_3way_G00to4way_G01 121_4way_G01to4way_G02 122_4way_G02to4way_G03 123_4way_G03to4way_G04 124_4way_G04to4way_G05 125_4way_G05to4way_G06 126_4way_G06to4way_G07"/>
    </vehicle>
    <vehicle id="128" depart="52.48">
        <route edges="27_3way_C10to3way_D10 35_3way_D10to3way_E10 42_3way_E10to3way_F10 46_3way_F10to3way_G10 50_3way_G10to3way_H09 66_3way_H09to3way_H08 64_3way_H08to3way_H07 62_3way_H07to3way_H06 60_3way_H06to3way_H05 58_3way_H05to3way_H04"/>
    </vehicle>
    <vehicle id="129" depart="52.89">
        <route edges="111_4way_G04to4way_F04 94_4way_F04to4way_E04 82_4way_E04to4way_D04 23_4way_D04to3way_C04 22_3way_C04to4way_B04 3_4way_B04to3way_A04 1_3way_A04to3way_A05"/>
    </vehicle>
    <vehicle id="130" depart="53.30">
        <route edges="108_4way_F03to4way_F04 94_4way_F04to4way_E04"/>
    </vehicle>
    <vehicle id="131" depart="53.71">
        <route edges="86_4way_D07to4way_E07 100_4way_E07to4way_F07 117_4way_F07to4way_G07 65_4way_G07to3way_H07 62_3way_H07to3way_H06 60_3way_H06to3way_H05 58_3way_H05to3way_H04 56_3way_H04to3way_H03 54_3way_H03to3way_H02 52_3way_H02to3way_H01"/>
    </vehicle>
    <vehicle id="132" depart="54.12">
        <route edges="71_4way_C07to4way_B07 9_4way_B07to3way_A07 8_3way_A07to3way_A08"/>
    </vehicle>
    <vehicle id="133" depart="54.53">
        <route edges="121_4way_G01to4way_G02 122_4way_G02to4way_G03 123_4way_G03to4way_G04 124_4way_G04to4way_G05 125_4way_G05to4way_G06 126_4way_G06to4way_G07 127_4way_G07to4way_G08"/>
    </vehicle>
    <vehicle id="134" depart="54.94">
        <route edges="117_4way_G07to4way_F07 114_4way_F07to4way_F06 112_4way_F06to4way_F05 110_4way_F05to4way_F04 108_4way_F04to4way_F03 92_4way_F03to4way_E03 81_4way_E03to4way_D03 21_4way_D03to3way_C03 14_3way_C03to3way_B03"/>
    </vehicle>
    <vehicle id="135" depart="55.35">
        <route edges="125_4way_G06to4way_G05 61_4way_G05to3way_H05"/>
    </vehicle>
    <vehicle id="136" depart="55.76">
        <route edges="111_4way_F04to4way_G04 124_4way_G04to4way_G05"/>
    </vehicle>
    <vehicle id="137" depart="56.17">
        <route edges="103_4way_F09to4way_E09 101_4way_E09to4way_E08 99_4way_E08to4way_E07 97_4way_E07to4way_E06 95_4way_E06to4way_E05 93_4way_E05to4way_E04 91_4way_E04to4way_E03 40_4way_E03to3way_E02 39_3way_E02to4way_E01"/>
    </vehicle>
    <vehicle id="138" depart="56.58">
        <route edges="116_4way_F08to4way_F07 114_4way_F07to4way_F06 112_4way_F06to4way_F05 110_4way_F05to4way_F04 111_4way_F04to4way_G04 123_4way_G04to4way_G03 122_4way_G03to4way_G02 121_4way_G02to4way_G01 49_4way_G01to3way_G00"/>
    </vehicle>
    <vehicle id="139" depart="56.99">
        <route edges="3_3way_A04to4way_B04 22_4way_B04to3way_C04 23_3way_C04to4way_D04 32_4way_D04to3way_D05 33_3way_D05to4way_D06 83_4way_D06to4way_D07 85_4way_D07to4way_D08 87_4way_D08to4way_D09"/>
    </vehicle>
    <vehicle id="140" depart="57.40">
        <route edges="42_3way_F10to3way_E10 35_3way_E10to3way_D10 27_3way_D10to3way_C10 18_3way_C10to3way_B10 19_3way_B10to4way_B09 72_4way_B09to4way_B08 70_4way_B08to4way_B07 69_4way_B07to4way_B06 17_4way_B06to3way_B05 16_3way_B05to4way_B04"/>
    </vehicle>
    <vehicle id="141" depart="57.81">
        <route edges="76_4way_C07to4way_D07 86_4way_D07to4way_E07 100_4way_E07to4way_F07 117_4way_F07to4way_G07 127_4way_G07to4way_G08"/>
    </vehicle>
    <vehicle id="142" depart="58.22">
        <route edges="40_3way_E02to4way_E03 91_4way_E03to4way_E04 93_4way_E04to4way_E05 95_4way_E05to4way_E06 97_4way_E06to4way_E07 99_4way_E07to4way_E08 88_4way_E08to4way_D08 78_4way_D08to4way_C08"/>
    </vehicle>
    <vehicle id="143" depart="58.63">
        <route edges="35_3way_E10to3way_D10 27_3way_D10to3way_C10 18_3way_C10to3way_B10 19_3way_B10to4way_B09 72_4way_B09to4way_B08 70_4way_B08to4way_B07 69_4way_B07to4way_B06 17_4way_B06to3way_B05"/>
    </vehicle>
    <vehicle id="144" depart="59.04">
        <route edges="64_3way_H08to3way_H07 62_3way_H07to3way_H06 63_3way_H06to4way_G06 115_4way_G06to4way_F06"/>
    </vehicle>
    <vehicle id="145" depart="59.45">