<routes xmlns:xsi="http://www.w3.org/2001/XMLSchema-instance" xsi:noNamespaceSchemaLocation="http://sumo.dlr.de/xsd/routes_file.xsd">
<trip id="0" depart="0.0" fromJunction="4way_E07" toJunction="4way_D04"/>
<trip id="1" depart="0.41" fromJunction="4way_D04" toJunction="4way_D08"/>
<trip id="2" depart="0.82" fromJunction="3way_E02" toJunction="4way_B09"/>
<trip id="3" depart="1.23" fromJunction="4way_G02" toJunction="3way_C03"/>
<trip id="4" depart="1.64" fromJunction="4way_B06" toJunction="4way_G07"/>
<trip id="5" depart="2.05" fromJunction="4way_D03" toJunction="4way_F04"/>
<trip id="6" depart="2.46" fromJunction="4way_G04" toJunction="3way_D05"/>
<trip id="7" depart="2.8699999999999997" fromJunction="3way_B10" toJunction="3way_A09"/>
<trip id="8" depart="3.28" fromJunction="4way_F06" toJunction="3way_A05"/>
<trip id="9" depart="3.69" fromJunction="4way_F09" toJunction="4way_F03"/>
<trip id="10" depart="4.1" fromJunction="4way_F04" toJunction="4way_G08"/>
<trip id="11" depart="4.51" fromJunction="4way_F03" toJunction="3way_C06"/>
<trip id="12" depart="4.92" fromJunction="3way_E02" toJunction="3way_D10"/>
<trip id="13" depart="5.33" fromJunction="4way_G06" toJunction="3way_F10"/>
<trip id="14" depart="5.739999999999999" fromJunction="4way_B08" toJunction="3way_D01"/>
<trip id="15" depart="6.1499999999999995" fromJunction="4way_F02" toJunction="3way_H02"/>
<trip id="16" depart="6.56" fromJunction="3way_D05" toJunction="3way_C04"/>
<trip id="17" depart="6.97" fromJunction="4way_D09" toJunction="3way_A05"/>
<trip id="18" depart="7.38" fromJunction="4way_E05" toJunction="4way_G05"/>
<trip id="19" depart="7.789999999999999" fromJunction="3way_C03" toJunction="4way_B04"/>
<trip id="20" depart="8.2" fromJunction="3way_A08" toJunction="4way_E06"/>
<trip id="21" depart="8.61" fromJunction="3way_E10" toJunction="3way_H06"/>
<trip id="22" depart="9.02" fromJunction="3way_B05" toJunction="3way_F00"/>
<trip id="23" depart="9.43" fromJunction="3way_C03" toJunction="4way_D06"/>
<trip id="24" depart="9.84" fromJunction="3way_C10" toJunction="4way_G09"/>
<trip id="25" depart="10.25" fromJunction="3way_G10" toJunction="3way_H06"/>
<trip id="26" depart="10.66" fromJunction="3way_H03" toJunction="4way_E03"/>
<trip id="27" depart="11.069999999999999" fromJunction="3way_H04" toJunction="3way_C06"/>
<trip id="28" depart="11.479999999999999" fromJunction="3way_C10" toJunction="3way_G10"/>
<trip id="29" depart="11.889999999999999" fromJunction="3way_E10" toJunction="4way_E03"/>
<trip id="30" depart="12.299999999999999" fromJunction="3way_B05" toJunction="3way_H07"/>
<trip id="31" depart="12.709999999999999" fromJunction="3way_B10" toJunction="4way_F06"/>
<trip id="32" depart="13.12" fromJunction="3way_B10" toJunction="4way_F07"/>
<trip id="33" depart="13.53" fromJunction="3way_C06" toJunction="4way_G08"/>
<trip id="34" depart="13.94" fromJunction="4way_D08" toJunction="4way_G08"/>
<trip id="35" depart="14.35" fromJunction="3way_A06" toJunction="4way_E09"/>
<trip id="36" depart="14.76" fromJunction="3way_D10" toJunction="3way_H01"/>
<trip id="37" depart="15.17" fromJunction="3way_D10" toJunction="3way_G00"/>
<trip id="38" depart="15.579999999999998" fromJunction="4way_B08" toJunction="3way_F00"/>
<trip id="39" depart="15.989999999999998" fromJunction="4way_E05" toJunction="3way_A08"/>
<trip id="40" depart="16.4" fromJunction="3way_H02" toJunction="3way_D05"/>
<trip id="41" depart="16.81" fromJunction="3way_B10" toJunction="3way_D01"/>
<trip id="42" depart="17.22" fromJunction="4way_G04" toJunction="4way_D06"/>
<trip id="43" depart="17.63" fromJunction="4way_E04" toJunction="3way_F00"/>
<trip id="44" depart="18.04" fromJunction="4way_E07" toJunction="3way_E10"/>
<trip id="45" depart="18.45" fromJunction="3way_H08" toJunction="3way_H01"/>
<trip id="46" depart="18.86" fromJunction="3way_A05" toJunction="4way_D07"/>
<trip id="47" depart="19.27" fromJunction="3way_A04" toJunction="4way_F06"/>
<trip id="48" depart="19.68" fromJunction="3way_H02" toJunction="4way_E04"/>
<trip id="49" depart="20.09" fromJunction="4way_G07" toJunction="4way_E08"/>
<trip id="50" depart="20.5" fromJunction="4way_D06" toJunction="3way_H04"/>
<trip id="51" depart="20.91" fromJunction="4way_D06" toJunction="4way_D07"/>
<trip id="52" depart="21.32" fromJunction="4way_G06" toJunction="3way_H05"/>
<trip id="53" depart="21.73" fromJunction="4way_F07" toJunction="3way_C04"/>
<trip id="54" depart="22.139999999999997" fromJunction="3way_G00" toJunction="4way_E06"/>
<trip id="55" depart="22.549999999999997" fromJunction="4way_B07" toJunction="4way_F05"/>
<trip id="56" depart="22.959999999999997" fromJunction="4way_D06" toJunction="4way_G01"/>
<trip id="57" depart="23.369999999999997" fromJunction="4way_E05" toJunction="4way_G01"/>
<trip id="58" depart="23.779999999999998" fromJunction="4way_C09" toJunction="4way_E08"/>
<trip id="59" depart="24.189999999999998" fromJunction="3way_E02" toJunction="4way_G06"/>
<trip id="60" depart="24.599999999999998" fromJunction="4way_D08" toJunction="4way_B09"/>
<trip id="61" depart="25.009999999999998" fromJunction="3way_G00" toJunction="3way_A05"/>
<trip id="62" depart="25.419999999999998" fromJunction="3way_H01" toJunction="4way_E03"/>
<trip id="63" depart="25.83" fromJunction="4way_B09" toJunction="4way_D09"/>
<trip id="64" depart="26.24" fromJunction="3way_G00" toJunction="3way_E10"/>
<trip id="65" depart="26.65" fromJunction="4way_D07" toJunction="4way_D06"/>
<trip id="66" depart="27.06" fromJunction="4way_E03" toJunction="4way_D06"/>
<trip id="67" depart="27.47" fromJunction="3way_C03" toJunction="3way_E02"/>
<trip id="68" depart="27.88" fromJunction="3way_B05" toJunction="4way_G02"/>
<trip id="69" depart="28.29" fromJunction="4way_G02" toJunction="3way_C03"/>
<trip id="70" depart="28.7" fromJunction="4way_E06" toJunction="4way_F05"/>
<trip id="71" depart="29.11" fromJunction="4way_G04" toJunction="3way_C10"/>
<trip id="72" depart="29.52" fromJunction="4way_G09" toJunction="4way_E07"/>
<trip id="73" depart="29.93" fromJunction="4way_F09" toJunction="3way_F10"/>
<trip id="74" depart="30.34" fromJunction="4way_D09" toJunction="3way_G10"/>
<trip id="75" depart="30.749999999999996" fromJunction="4way_F08" toJunction="3way_D10"/>
<trip id="76" depart="31.159999999999997" fromJunction="3way_D05" toJunction="4way_F05"/>
<trip id="77" depart="31.569999999999997" fromJunction="3way_A08" toJunction="4way_B08"/>
<trip id="78" depart="31.979999999999997" fromJunction="3way_C04" toJunction="4way_E06"/>
<trip id="79" depart="32.39" fromJunction="4way_F09" toJunction="4way_E07"/>
<trip id="80" depart="32.8" fromJunction="4way_F08" toJunction="4way_G08"/>
<trip id="81" depart="33.21" fromJunction="4way_B04" toJunction="3way_A04"/>
<trip id="82" depart="33.62" fromJunction="3way_H09" toJunction="4way_E08"/>
<trip id="83" depart="34.03" fromJunction="3way_A07" toJunction="3way_D01"/>
<trip id="84" depart="34.44" fromJunction="3way_A05" toJunction="3way_H07"/>
<trip id="85" depart="34.85" fromJunction="3way_H05" toJunction="4way_F04"/>
<trip id="86" depart="35.26" fromJunction="4way_G04" toJunction="3way_B03"/>
<trip id="87" depart="35.669999999999995" fromJunction="3way_A06" toJunction="4way_E06"/>
<trip id="88" depart="36.08" fromJunction="4way_D09" toJunction="3way_G10"/>
<trip id="89" depart="36.489999999999995" fromJunction="3way_H04" toJunction="4way_D06"/>
<trip id="90" depart="36.9" fromJunction="4way_D09" toJunction="4way_G05"/>
<trip id="91" depart="37.309999999999995" fromJunction="4way_D07" toJunction="4way_D03"/>
<trip id="92" depart="37.72" fromJunction="3way_F00" toJunction="4way_E08"/>
<trip id="93" depart="38.129999999999995" fromJunction="3way_H06" toJunction="4way_B07"/>
<trip id="94" depart="38.54" fromJunction="4way_G05" toJunction="3way_H08"/>
<trip id="95" depart="38.949999999999996" fromJunction="4way_C08" toJunction="4way_E09"/>
<trip id="96" depart="39.36" fromJunction="3way_H03" toJunction="3way_H05"/>
<trip id="97" depart="39.769999999999996" fromJunction="3way_C03" toJunction="3way_A08"/>
<trip id="98" depart="40.18" fromJunction="4way_E06" toJunction="3way_F00"/>
<trip id="99" depart="40.589999999999996" fromJunction="3way_H09" toJunction="4way_B06"/>
<trip id="100" depart="41.0" fromJunction="3way_A08" toJunction="3way_A05"/>
<trip id="101" depart="41.41" fromJunction="3way_C04" toJunction="4way_E04"/>
<trip id="102" depart="41.82" fromJunction="4way_G02" toJunction="4way_D03"/>
<trip id="103" depart="42.23" fromJunction="3way_H06" toJunction="4way_G09"/>
<trip id="104" depart="42.64" fromJunction="3way_H03" toJunction="4way_E03"/>
<trip id="105" depart="43.05" fromJunction="4way_F01" toJunction="3way_A05"/>
<trip id="106" depart="43.46" fromJunction="4way_B06" toJunction="3way_E00"/>
<trip id="107" depart="43.87" fromJunction="4way_F06" toJunction="4way_D07"/>
<trip id="108" depart="44.279999999999994" fromJunction="4way_F09" toJunction="4way_E01"/>
<trip id="109" depart="44.69" fromJunction="4way_F04" toJunction="3way_H02"/>
<trip id="110" depart="45.099999999999994" fromJunction="4way_G06" toJunction="3way_H08"/>
<trip id="111" depart="45.51" fromJunction="3way_H06" toJunction="4way_E05"/>
<trip id="112" depart="45.919999999999995" fromJunction="4way_E08" toJunction="4way_G06"/>
<trip id="113" depart="46.33" fromJunction="3way_H06" toJunction="3way_H03"/>
<trip id="114" depart="46.739999999999995" fromJunction="3way_A05" toJunction="3way_D01"/>
<trip id="115" depart="47.15" fromJunction="4way_B09" toJunction="3way_H07"/>
<trip id="116" depart="47.559999999999995" fromJunction="3way_C06" toJunction="3way_B05"/>
<trip id="117" depart="47.97" fromJunction="4way_D07" toJunction="3way_H02"/>
<trip id="118" depart="48.379999999999995" fromJunction="3way_D10" toJunction="4way_F09"/>
<trip id="119" depart="48.79" fromJunction="3way_E10" toJunction="3way_D01"/>
<trip id="120" depart="49.199999999999996" fromJunction="4way_B07" toJunction="4way_E07"/>
<trip id="121" depart="49.61" fromJunction="3way_H08" toJunction="3way_D05"/>
<trip id="122" depart="50.019999999999996" fromJunction="4way_C08" toJunction="3way_F10"/>
<trip id="123" depart="50.43" fromJunction="4way_G05" toJunction="4way_B04"/>
<trip id="124" depart="50.839999999999996" fromJunction="4way_E09" toJunction="4way_F02"/>
<trip id="125" depart="51.25" fromJunction="3way_B10" toJunction="4way_G03"/>
<trip id="126" depart="51.66" fromJunction="4way_D07" toJunction="4way_D04"/>
<trip id="127" depart="52.07" fromJunction="3way_G00" toJunction="4way_G07"/>
<trip id="128" depart="52.48" fromJunction="3way_C10" toJunction="3way_H04"/>
<trip id="129" depart="52.88999999999999" fromJunction="4way_G04" toJunction="3way_A05"/>
<trip id="130" depart="53.3" fromJunction="4way_F03" toJunction="4way_E04"/>
<trip id="131" depart="53.709999999999994" fromJunction="4way_D07" toJunction="3way_H01"/>
<trip id="132" depart="54.12" fromJunction="4way_C07" toJunction="3way_A08"/>
<trip id="133" depart="54.529999999999994" fromJunction="4way_G01" toJunction="4way_G08"/>
<trip id="134" depart="54.94" fromJunction="4way_G07" toJunction="3way_B03"/>
<trip id="135" depart="55.349999999999994" fromJunction="4way_G06" toJunction="3way_H05"/>
<trip id="136" depart="55.76" fromJunction="4way_F04" toJunction="4way_G05"/>
<trip id="137" depart="56.169999999999995" fromJunction="4way_F09" toJunction="4way_E01"/>
<trip id="138" depart="56.58" fromJunction="4way_F08" toJunction="3way_G00"/>
<trip id="139" depart="56.989999999999995" fromJunction="3way_A04" toJunction="4way_D09"/>
<trip id="140" depart="57.4" fromJunction="3way_F10" toJunction="4way_B04"/>
<trip id="141" depart="57.809999999999995" fromJunction="4way_C07" toJunction="4way_G08"/>
<trip id="142" depart="58.22" fromJunction="3way_E02" toJunction="4way_C08"/>
<trip id="143" depart="58.629999999999995" fromJunction="3way_E10" toJunction="3way_B05"/>
<trip id="144" depart="59.04" fromJunction="3way_H08" toJunction="4way_F06"/>
<trip id="145" depart="59.449999999999996" fromJunction="3way_H05" toJunction="4way_C09"/>
<trip id="146" depart="59.86" fromJunction="4way_F09" toJunction="3way_C10"/>
<trip id="147" depart="60.269999999999996" fromJunction="4way_G07" toJunction="4way_G08"/>
<trip id="148" depart="60.68" fromJunction="4way_F02" toJunction="4way_G03"/>
<trip id="149" depart="61.089999999999996" fromJunction="3way_A09" toJunction="3way_E00"/>
<trip id="150" depart="61.49999999999999" fromJunction="3way_H05" toJunction="4way_B08"/>
<trip id="151" depart="61.91" fromJunction="3way_A07" toJunction="3way_E10"/>
<trip id="152" depart="62.31999999999999" fromJunction="3way_A04" toJunction="4way_E08"/>
<trip id="153" depart="62.73" fromJunction="3way_F10" toJunction="4way_F02"/>
<trip id="154" depart="63.13999999999999" fromJunction="3way_B10" toJunction="3way_A09"/>
<trip id="155" depart="63.55" fromJunction="3way_H04" toJunction="4way_E04"/>
<trip id="156" depart="63.959999999999994" fromJunction="3way_D05" toJunction="4way_B09"/>
<trip id="157" depart="64.36999999999999" fromJunction="4way_E08" toJunction="4way_F08"/>
<trip id="158" depart="64.78" fromJunction="3way_E10" toJunction="3way_H02"/>
<trip id="159" depart="65.19" fromJunction="3way_G00" toJunction="3way_A07"/>
<trip id="160" depart="65.6" fromJunction="3way_C04" toJunction="3way_H03"/>
<trip id="161" depart="66.00999999999999" fromJunction="4way_E06" toJunction="4way_E05"/>
<trip id="162" depart="66.42" fromJunction="4way_B06" toJunction="3way_H01"/>
<trip id="163" depart="66.83" fromJunction="4way_F03" toJunction="3way_H08"/>
<trip id="164" depart="67.24" fromJunction="4way_E06" toJunction="3way_A08"/>
<trip id="165" depart="67.64999999999999" fromJunction="4way_F02" toJunction="4way_F03"/>
<trip id="166" depart="68.06" fromJunction="3way_B05" toJunction="3way_H03"/>
<trip id="167" depart="68.47" fromJunction="3way_H02" toJunction="4way_D07"/>
<trip id="168" depart="68.88" fromJunction="3way_H07" toJunction="3way_B05"/>
<trip id="169" depart="69.28999999999999" fromJunction="3way_A07" toJunction="3way_C06"/>
<trip id="170" depart="69.7" fromJunction="3way_A09" toJunction="4way_F04"/>
<trip id="171" depart="70.11" fromJunction="3way_F00" toJunction="3way_D01"/>
<trip id="172" depart="70.52" fromJunction="4way_G07" toJunction="4way_D06"/>
<trip id="173" depart="70.92999999999999" fromJunction="3way_A06" toJunction="3way_E02"/>
<trip id="174" depart="71.33999999999999" fromJunction="4way_C09" toJunction="4way_B09"/>
<trip id="175" depart="71.75" fromJunction="4way_E05" toJunction="4way_D03"/>
<trip id="176" depart="72.16" fromJunction="3way_E10" toJunction="3way_H02"/>
<trip id="177" depart="72.57" fromJunction="4way_G06" toJunction="4way_B07"/>
<trip id="178" depart="72.97999999999999" fromJunction="4way_G03" toJunction="3way_H08"/>
<trip id="179" depart="73.39" fromJunction="3way_C04" toJunction="4way_D04"/>
<trip id="180" depart="73.8" fromJunction="3way_C06" toJunction="4way_G01"/>
<trip id="181" depart="74.21" fromJunction="4way_B07" toJunction="4way_E08"/>
<trip id="182" depart="74.61999999999999" fromJunction="4way_E05" toJunction="4way_G03"/>
<trip id="183" depart="75.03" fromJunction="3way_E00" toJunction="4way_E06"/>
<trip id="184" depart="75.44" fromJunction="4way_E01" toJunction="4way_F01"/>
<trip id="185" depart="75.85" fromJunction="3way_G10" toJunction="3way_H04"/>
<trip id="186" depart="76.25999999999999" fromJunction="4way_G07" toJunction="4way_F04"/>
<trip id="187" depart="76.67" fromJunction="4way_D07" toJunction="3way_C04"/>
<trip id="188" depart="77.08" fromJunction="3way_C04" toJunction="4way_F08"/>
<trip id="189" depart="77.49" fromJunction="4way_D06" toJunction="4way_G06"/>
<trip id="190" depart="77.89999999999999" fromJunction="4way_G03" toJunction="4way_F06"/>
<trip id="191" depart="78.31" fromJunction="3way_G10" toJunction="4way_F05"/>
<trip id="192" depart="78.72" fromJunction="4way_B07" toJunction="4way_E01"/>
<trip id="193" depart="79.13" fromJunction="4way_B09" toJunction="3way_A08"/>
<trip id="194" depart="79.53999999999999" fromJunction="4way_F08" toJunction="3way_H03"/>
<trip id="195" depart="79.94999999999999" fromJunction="4way_G07" toJunction="3way_A06"/>
<trip id="196" depart="80.36" fromJunction="3way_H08" toJunction="3way_A05"/>
<trip id="197" depart="80.77" fromJunction="4way_G04" toJunction="4way_B07"/>
<trip id="198" depart="81.17999999999999" fromJunction="4way_G06" toJunction="3way_C10"/>
<trip id="199" depart="81.58999999999999" fromJunction="3way_C04" toJunction="4way_F09"/>
<trip id="200" depart="82.0" fromJunction="3way_H05" toJunction="3way_E00"/>
<trip id="201" depart="82.41" fromJunction="3way_A06" toJunction="4way_D09"/>
<trip id="202" depart="82.82" fromJunction="4way_B09" toJunction="3way_A05"/>
<trip id="203" depart="83.22999999999999" fromJunction="3way_H03" toJunction="3way_A08"/>
<trip id="204" depart="83.64" fromJunction="3way_H03" toJunction="3way_H06"/>
<trip id="205" depart="84.05" fromJunction="3way_A04" toJunction="3way_E10"/>
<trip id="206" depart="84.46" fromJunction="4way_D09" toJunction="3way_D10"/>
<trip id="207" depart="84.86999999999999" fromJunction="4way_G09" toJunction="4way_G08"/>
<trip id="208" depart="85.28" fromJunction="3way_G10" toJunction="4way_B08"/>
<trip id="209" depart="85.69" fromJunction="4way_C08" toJunction="4way_E01"/>
<trip id="210" depart="86.1" fromJunction="3way_A08" toJunction="4way_G09"/>
<trip id="211" depart="86.50999999999999" fromJunction="3way_H01" toJunction="4way_F03"/>
<trip id="212" depart="86.92" fromJunction="4way_E03" toJunction="3way_H04"/>
<trip id="213" depart="87.33" fromJunction="4way_E03" toJunction="3way_H04"/>
<trip id="214" depart="87.74" fromJunction="4way_B09" toJunction="3way_D01"/>
<trip id="215" depart="88.14999999999999" fromJunction="3way_H01" toJunction="4way_D04"/>
<trip id="216" depart="88.55999999999999" fromJunction="4way_B08" toJunction="4way_E06"/>
<trip id="217" depart="88.97" fromJunction="4way_F06" toJunction="4way_B04"/>
<trip id="218" depart="89.38" fromJunction="3way_A07" toJunction="4way_G04"/>
<trip id="219" depart="89.78999999999999" fromJunction="4way_B04" toJunction="3way_H05"/>
<trip id="220" depart="90.19999999999999" fromJunction="4way_G08" toJunction="4way_F05"/>
<trip id="221" depart="90.61" fromJunction="4way_G03" toJunction="4way_G07"/>
<trip id="222" depart="91.02" fromJunction="4way_G09" toJunction="3way_G00"/>
<trip id="223" depart="91.42999999999999" fromJunction="3way_C10" toJunction="3way_H04"/>
<trip id="224" depart="91.83999999999999" fromJunction="3way_H05" toJunction="4way_G06"/>
<trip id="225" depart="92.25" fromJunction="3way_A08" toJunction="4way_E05"/>
<trip id="226" depart="92.66" fromJunction="4way_G01" toJunction="4way_E08"/>
<trip id="227" depart="93.07" fromJunction="4way_B06" toJunction="3way_H02"/>
<trip id="228" depart="93.47999999999999" fromJunction="4way_E09" toJunction="3way_B05"/>
<trip id="229" depart="93.89" fromJunction="3way_H09" toJunction="3way_H04"/>
<trip id="230" depart="94.3" fromJunction="3way_G00" toJunction="3way_C04"/>
<trip id="231" depart="94.71" fromJunction="3way_H04" toJunction="4way_F07"/>
<trip id="232" depart="95.11999999999999" fromJunction="4way_G05" toJunction="4way_C09"/>
<trip id="233" depart="95.53" fromJunction="4way_F09" toJunction="4way_E01"/>
<trip id="234" depart="95.94" fromJunction="4way_F01" toJunction="4way_G05"/>
<trip id="235" depart="96.35" fromJunction="4way_G07" toJunction="4way_E06"/>
<trip id="236" depart="96.75999999999999" fromJunction="3way_C04" toJunction="4way_G09"/>
<trip id="237" depart="97.16999999999999" fromJunction="3way_G00" toJunction="3way_A09"/>
<trip id="238" depart="97.58" fromJunction="4way_B09" toJunction="3way_F10"/>
<trip id="239" depart="97.99" fromJunction="4way_D08" toJunction="3way_E10"/>
<trip id="240" depart="98.39999999999999" fromJunction="4way_G02" toJunction="4way_B06"/>
<trip id="241" depart="98.80999999999999" fromJunction="4way_D04" toJunction="4way_G07"/>
<trip id="242" depart="99.22" fromJunction="4way_D07" toJunction="3way_H02"/>
<trip id="243" depart="99.63" fromJunction="4way_B08" toJunction="4way_G02"/>
<trip id="244" depart="100.03999999999999" fromJunction="3way_H02" toJunction="4way_D04"/>
<trip id="245" depart="100.44999999999999" fromJunction="4way_B07" toJunction="3way_C04"/>
<trip id="246" depart="100.86" fromJunction="4way_C09" toJunction="3way_H04"/>
<trip id="247" depart="101.27" fromJunction="3way_B05" toJunction="3way_F00"/>
<trip id="248" depart="101.67999999999999" fromJunction="4way_F01" toJunction="3way_D01"/>
<trip id="249" depart="102.08999999999999" fromJunction="4way_G04" toJunction="3way_B03"/>
<trip id="250" depart="102.5" fromJunction="3way_A07" toJunction="4way_F09"/>
<trip id="251" depart="102.91" fromJunction="3way_C04" toJunction="3way_H03"/>
<trip id="252" depart="103.32" fromJunction="4way_B04" toJunction="3way_C10"/>
<trip id="253" depart="103.72999999999999" fromJunction="4way_E04" toJunction="4way_E09"/>
<trip id="254" depart="104.14" fromJunction="4way_E07" toJunction="4way_D09"/>
<trip id="255" depart="104.55" fromJunction="3way_B03" toJunction="3way_H07"/>
<trip id="256" depart="104.96" fromJunction="4way_G01" toJunction="4way_E04"/>
<trip id="257" depart="105.36999999999999" fromJunction="3way_H01" toJunction="4way_D04"/>
<trip id="258" depart="105.77999999999999" fromJunction="4way_E07" toJunction="3way_A06"/>
<trip id="259" depart="106.19" fromJunction="3way_B05" toJunction="3way_A04"/>
<trip id="260" depart="106.6" fromJunction="4way_G04" toJunction="4way_D03"/>
<trip id="261" depart="107.00999999999999" fromJunction="4way_B08" toJunction="3way_B10"/>
<trip id="262" depart="107.41999999999999" fromJunction="3way_B03" toJunction="3way_A05"/>
<trip id="263" depart="107.83" fromJunction="3way_H01" toJunction="4way_D09"/>
<trip id="264" depart="108.24" fromJunction="3way_D10" toJunction="3way_H06"/>
<trip id="265" depart="108.64999999999999" fromJunction="4way_E06" toJunction="4way_D06"/>
<trip id="266" depart="109.05999999999999" fromJunction="4way_G06" toJunction="4way_E04"/>
<trip id="267" depart="109.47" fromJunction="3way_E02" toJunction="3way_A04"/>
<trip id="268" depart="109.88" fromJunction="4way_D07" toJunction="4way_D08"/>
<trip id="269" depart="110.28999999999999" fromJunction="3way_A05" toJunction="4way_G07"/>
<trip id="270" depart="110.69999999999999" fromJunction="4way_F05" toJunction="4way_E06"/>
<trip id="271" depart="111.11" fromJunction="3way_B03" toJunction="4way_C09"/>
<trip id="272" depart="111.52" fromJunction="3way_C10" toJunction="4way_F03"/>
<trip id="273" depart="111.92999999999999" fromJunction="3way_D01" toJunction="3way_C03"/>
<trip id="274" depart="112.33999999999999" fromJunction="3way_B10" toJunction="4way_E05"/>
<trip id="275" depart="112.75" fromJunction="4way_B08" toJunction="3way_H05"/>
<trip id="276" depart="113.16" fromJunction="4way_G01" toJunction="4way_D09"/>
<trip id="277" depart="113.57" fromJunction="3way_E10" toJunction="4way_D09"/>
<trip id="278" depart="113.97999999999999" fromJunction="4way_F09" toJunction="4way_G08"/>
<trip id="279" depart="114.38999999999999" fromJunction="4way_G04" toJunction="4way_C09"/>
<trip id="280" depart="114.8" fromJunction="4way_G04" toJunction="4way_D03"/>
<trip id="281" depart="115.21" fromJunction="4way_G07" toJunction="4way_F06"/>
<trip id="282" depart="115.61999999999999" fromJunction="3way_A06" toJunction="4way_G04"/>
<trip id="283" depart="116.02999999999999" fromJunction="4way_B07" toJunction="3way_H09"/>
<trip id="284" depart="116.44" fromJunction="3way_G00" toJunction="4way_G06"/>
<trip id="285" depart="116.85" fromJunction="4way_G01" toJunction="3way_G10"/>
<trip id="286" depart="117.25999999999999" fromJunction="4way_G03" toJunction="3way_C04"/>
<trip id="287" depart="117.66999999999999" fromJunction="4way_E03" toJunction="3way_G10"/>
<trip id="288" depart="118.08" fromJunction="3way_A09" toJunction="3way_C03"/>
<trip id="289" depart="118.49" fromJunction="3way_H04" toJunction="4way_E06"/>
<trip id="290" depart="118.89999999999999" fromJunction="3way_A08" toJunction="3way_A06"/>
<trip id="291" depart="119.30999999999999" fromJunction="4way_G03" toJunction="3way_A08"/>
<trip id="292" depart="119.72" fromJunction="4way_G02" toJunction="4way_E09"/>
<trip id="293" depart="120.13" fromJunction="4way_D03" toJunction="4way_E04"/>
<trip id="294" depart="120.53999999999999" fromJunction="4way_G09" toJunction="3way_G00"/>
<trip id="295" depart="120.94999999999999" fromJunction="3way_C06" toJunction="3way_B05"/>
<trip id="296" depart="121.36" fromJunction="4way_G08" toJunction="4way_B06"/>
<trip id="297" depart="121.77" fromJunction="3way_E00" toJunction="3way_H09"/>
<trip id="298" depart="122.17999999999999" fromJunction="3way_A08" toJunction="4way_E04"/>
<trip id="299" depart="122.58999999999999" fromJunction="4way_C07" toJunction="4way_D08"/>
<trip id="300" depart="122.99999999999999" fromJunction="3way_H04" toJunction="3way_H01"/>
<trip id="301" depart="123.41" fromJunction="3way_B05" toJunction="3way_D01"/>
<trip id="302" depart="123.82" fromJunction="3way_B03" toJunction="3way_C04"/>
<trip id="303" depart="124.22999999999999" fromJunction="3way_E10" toJunction="4way_G07"/>
<trip id="304" depart="124.63999999999999" fromJunction="3way_B03" toJunction="3way_B10"/>
<trip id="305" depart="125.05" fromJunction="4way_E03" toJunction="4way_D07"/>
<trip id="306" depart="125.46" fromJunction="4way_G09" toJunction="4way_B07"/>
<trip id="307" depart="125.86999999999999" fromJunction="4way_E07" toJunction="4way_B04"/>
<trip id="308" depart="126.27999999999999" fromJunction="4way_F05" toJunction="4way_E01"/>
<trip id="309" depart="126.69" fromJunction="4way_G02" toJunction="4way_G08"/>
<trip id="310" depart="127.1" fromJunction="4way_E06" toJunction="4way_F02"/>
<trip id="311" depart="127.50999999999999" fromJunction="3way_F10" toJunction="3way_B03"/>
<trip id="312" depart="127.91999999999999" fromJunction="3way_H04" toJunction="3way_A08"/>
<trip id="313" depart="128.32999999999998" fromJunction="3way_D01" toJunction="3way_C03"/>
<trip id="314" depart="128.73999999999998" fromJunction="4way_G07" toJunction="4way_F02"/>
<trip id="315" depart="129.15" fromJunction="3way_C10" toJunction="3way_D10"/>
<trip id="316" depart="129.56" fromJunction="4way_E09" toJunction="4way_D07"/>
<trip id="317" depart="129.97" fromJunction="4way_G05" toJunction="4way_F08"/>
<trip id="318" depart="130.38" fromJunction="4way_B07" toJunction="4way_G08"/>
<trip id="319" depart="130.79" fromJunction="3way_F10" toJunction="4way_B06"/>
<trip id="320" depart="131.2" fromJunction="4way_E03" toJunction="4way_E05"/>
<trip id="321" depart="131.60999999999999" fromJunction="3way_C10" toJunction="4way_F09"/>
<trip id="322" depart="132.01999999999998" fromJunction="4way_D06" toJunction="4way_C08"/>
<trip id="323" depart="132.42999999999998" fromJunction="3way_H09" toJunction="3way_H04"/>
<trip id="324" depart="132.84" fromJunction="3way_A08" toJunction="4way_F08"/>
<trip id="325" depart="133.25" fromJunction="3way_D10" toJunction="3way_C06"/>
<trip id="326" depart="133.66" fromJunction="4way_G08" toJunction="3way_C04"/>
<trip id="327" depart="134.07" fromJunction="4way_F08" toJunction="4way_B09"/>
<trip id="328" depart="134.48" fromJunction="3way_H02" toJunction="3way_D10"/>
<trip id="329" depart="134.89" fromJunction="4way_B07" toJunction="4way_B08"/>
<trip id="330" depart="135.29999999999998" fromJunction="3way_B03" toJunction="4way_E04"/>
<trip id="331" depart="135.70999999999998" fromJunction="3way_E02" toJunction="4way_E07"/>
<trip id="332" depart="136.12" fromJunction="3way_C03" toJunction="4way_B07"/>
<trip id="333" depart="136.53" fromJunction="3way_A09" toJunction="4way_D09"/>
<trip id="334" depart="136.94" fromJunction="4way_E03" toJunction="4way_F06"/>
<trip id="335" depart="137.35" fromJunction="4way_D03" toJunction="4way_E08"/>
<trip id="336" depart="137.76" fromJunction="4way_B08" toJunction="3way_C10"/>
<trip id="337" depart="138.17" fromJunction="3way_E00" toJunction="4way_B08"/>
<trip id="338" depart="138.57999999999998" fromJunction="4way_E09" toJunction="3way_A06"/>
<trip id="339" depart="138.98999999999998" fromJunction="4way_D08" toJunction="3way_C10"/>
<trip id="340" depart="139.4" fromJunction="4way_E01" toJunction="4way_E06"/>
<trip id="341" depart="139.81" fromJunction="3way_C10" toJunction="4way_G07"/>
<trip id="342" depart="140.22" fromJunction="3way_A06" toJunction="4way_F09"/>
<trip id="343" depart="140.63" fromJunction="4way_B08" toJunction="4way_D03"/>
<trip id="344" depart="141.04" fromJunction="3way_B05" toJunction="3way_D01"/>
<trip id="345" depart="141.45" fromJunction="3way_A05" toJunction="3way_H08"/>
<trip id="346" depart="141.85999999999999" fromJunction="4way_F07" toJunction="3way_D01"/>
<trip id="347" depart="142.26999999999998" fromJunction="3way_H05" toJunction="3way_B05"/>
<trip id="348" depart="142.67999999999998" fromJunction="3way_B10" toJunction="3way_A09"/>
<trip id="349" depart="143.09" fromJunction="3way_C10" toJunction="3way_H06"/>
<trip id="350" depart="143.5" fromJunction="3way_A08" toJunction="3way_H02"/>
<trip id="351" depart="143.91" fromJunction="4way_F08" toJunction="3way_A08"/>
<trip id="352" depart="144.32" fromJunction="3way_D05" toJunction="3way_G10"/>
<trip id="353" depart="144.73" fromJunction="3way_C04" toJunction="4way_F02"/>
<trip id="354" depart="145.14" fromJunction="3way_H07" toJunction="3way_G10"/>
<trip id="355" depart="145.54999999999998" fromJunction="4way_D03" toJunction="3way_C03"/>
<trip id="356" depart="145.95999999999998" fromJunction="4way_F03" toJunction="4way_B04"/>
<trip id="357" depart="146.37" fromJunction="4way_G04" toJunction="4way_F01"/>
<trip id="358" depart="146.78" fromJunction="4way_G02" toJunction="3way_A06"/>
<trip id="359" depart="147.19" fromJunction="4way_G01" toJunction="4way_B07"/>
<trip id="360" depart="147.6" fromJunction="4way_G09" toJunction="4way_E05"/>
<trip id="361" depart="148.01" fromJunction="3way_B05" toJunction="4way_F01"/>