<routes xmlns:xsi="http://www.w3.org/2001/XMLSchema-instance" xsi:noNamespaceSchemaLocation="http://sumo.dlr.de/xsd/routes_file.xsd">
<trip id="0" depart="0.0" fromJunction="4way_12" toJunction="4way_26"/>
<trip id="1" depart="0.3846" fromJunction="4way_26" toJunction="4way_11"/>
<trip id="2" depart="0.7692" fromJunction="4way_27" toJunction="4way_17"/>
<trip id="3" depart="1.1538" fromJunction="4way_53" toJunction="4way_25"/>
<trip id="4" depart="1.5384" fromJunction="3way_8" toJunction="4way_38"/>
<trip id="5" depart="1.923" fromJunction="4way_18" toJunction="4way_52"/>
<trip id="6" depart="2.3076" fromJunction="4way_22" toJunction="4way_42"/>
<trip id="7" depart="2.6922" fromJunction="3way_6" toJunction="3way_5"/>
<trip id="8" depart="3.0768" fromJunction="4way_21" toJunction="3way_2"/>
<trip id="9" depart="3.4614" fromJunction="4way_45" toJunction="4way_44"/>
<trip id="10" depart="3.846" fromJunction="4way_52" toJunction="4way_46"/>
<trip id="11" depart="4.2306" fromJunction="4way_44" toJunction="4way_33"/>
<trip id="12" depart="4.6152" fromJunction="4way_27" toJunction="3way_23"/>
<trip id="13" depart="4.9998" fromJunction="4way_30" toJunction="3way_31"/>
<trip id="14" depart="5.3844" fromJunction="4way_9" toJunction="4way_18"/>
<trip id="15" depart="5.769" fromJunction="4way_44" toJunction="3way_59"/>
<trip id="16" depart="6.1536" fromJunction="4way_42" toJunction="4way_33"/>
<trip id="17" depart="6.5382" fromJunction="4way_19" toJunction="3way_2"/>
<trip id="18" depart="6.9228" fromJunction="4way_19" toJunction="4way_11"/>
<trip id="19" depart="7.3074" fromJunction="4way_43" toJunction="4way_30"/>
<trip id="20" depart="7.692" fromJunction="4way_25" toJunction="3way_24"/>
<trip id="21" depart="8.0766" fromJunction="3way_4" toJunction="4way_51"/>
<trip id="22" depart="8.4612" fromJunction="3way_23" toJunction="3way_62"/>
<trip id="23" depart="8.8458" fromJunction="3way_24" toJunction="3way_48"/>
<trip id="24" depart="9.2304" fromJunction="4way_25" toJunction="4way_42"/>
<trip id="25" depart="9.615" fromJunction="3way_15" toJunction="4way_54"/>
<trip id="26" depart="9.9996" fromJunction="3way_39" toJunction="3way_62"/>
<trip id="27" depart="10.3842" fromJunction="3way_59" toJunction="4way_35"/>
<trip id="28" depart="10.7688" fromJunction="3way_60" toJunction="4way_33"/>
<trip id="29" depart="11.1534" fromJunction="3way_15" toJunction="3way_39"/>
<trip id="30" depart="11.538" fromJunction="3way_31" toJunction="4way_35"/>
<trip id="31" depart="11.9226" fromJunction="3way_16" toJunction="3way_55"/>
<trip id="32" depart="12.3072" fromJunction="3way_6" toJunction="4way_21"/>
<trip id="33" depart="12.6918" fromJunction="3way_6" toJunction="4way_29"/>
<trip id="34" depart="13.0764" fromJunction="4way_41" toJunction="4way_46"/>
<trip id="35" depart="13.461" fromJunction="4way_11" toJunction="4way_46"/>
<trip id="36" depart="13.8456" fromJunction="3way_3" toJunction="4way_28"/>
<trip id="37" depart="14.2302" fromJunction="3way_23" toJunction="3way_58"/>
<trip id="38" depart="14.6148" fromJunction="3way_23" toJunction="3way_57"/>
<trip id="39" depart="14.9994" fromJunction="4way_9" toJunction="3way_40"/>
<trip id="40" depart="15.384" fromJunction="4way_51" toJunction="3way_4"/>
<trip id="41" depart="15.7686" fromJunction="3way_59" toJunction="4way_34"/>
<trip id="42" depart="16.1532" fromJunction="3way_6" toJunction="4way_18"/>
<trip id="43" depart="16.5378" fromJunction="4way_22" toJunction="4way_42"/>
<trip id="44" depart="16.9224" fromJunction="4way_43" toJunction="3way_40"/>
<trip id="45" depart="17.307" fromJunction="4way_12" toJunction="3way_23"/>
<trip id="46" depart="17.6916" fromJunction="3way_47" toJunction="3way_57"/>
<trip id="47" depart="18.0762" fromJunction="3way_2" toJunction="4way_50"/>
<trip id="48" depart="18.4608" fromJunction="3way_1" toJunction="4way_21"/>
<trip id="49" depart="18.8454" fromJunction="3way_58" toJunction="4way_43"/>
<trip id="50" depart="19.23" fromJunction="4way_38" toJunction="4way_28"/>
<trip id="51" depart="19.6146" fromJunction="4way_42" toJunction="3way_60"/>
<trip id="52" depart="19.9992" fromJunction="4way_42" toJunction="4way_50"/>
<trip id="53" depart="20.3838" fromJunction="4way_38" toJunction="3way_61"/>
<trip id="54" depart="20.7684" fromJunction="4way_29" toJunction="4way_25"/>
<trip id="55" depart="21.153" fromJunction="3way_57" toJunction="4way_51"/>
<trip id="56" depart="21.5376" fromJunction="3way_8" toJunction="4way_13"/>
<trip id="57" depart="21.9222" fromJunction="4way_42" toJunction="4way_45"/>
<trip id="58" depart="22.3068" fromJunction="4way_51" toJunction="4way_45"/>
<trip id="59" depart="22.6914" fromJunction="4way_10" toJunction="4way_20"/>
<trip id="60" depart="23.076" fromJunction="4way_27" toJunction="4way_38"/>
<trip id="61" depart="23.4606" fromJunction="4way_11" toJunction="4way_17"/>
<trip id="62" depart="23.8452" fromJunction="3way_48" toJunction="3way_2"/>
<trip id="63" depart="24.2298" fromJunction="3way_57" toJunction="4way_35"/>
<trip id="64" depart="24.6144" fromJunction="4way_17" toJunction="4way_19"/>
<trip id="65" depart="24.999" fromJunction="3way_57" toJunction="3way_31"/>
<trip id="66" depart="25.3836" fromJunction="4way_50" toJunction="4way_42"/>
<trip id="67" depart="25.7682" fromJunction="4way_35" toJunction="4way_42"/>
<trip id="68" depart="26.1528" fromJunction="4way_17" toJunction="4way_35"/>
<trip id="69" depart="26.537399999999998" fromJunction="3way_16" toJunction="4way_53"/>
<trip id="70" depart="26.922" fromJunction="4way_53" toJunction="4way_25"/>
<trip id="71" depart="27.3066" fromJunction="4way_12" toJunction="4way_13"/>
<trip id="72" depart="27.6912" fromJunction="4way_22" toJunction="3way_15"/>
<trip id="73" depart="28.0758" fromJunction="4way_54" toJunction="4way_12"/>
<trip id="74" depart="28.4604" fromJunction="4way_45" toJunction="3way_31"/>
<trip id="75" depart="28.845" fromJunction="4way_11" toJunction="3way_39"/>
<trip id="76" depart="29.2296" fromJunction="4way_29" toJunction="3way_23"/>
<trip id="77" depart="29.6142" fromJunction="4way_42" toJunction="4way_13"/>
<trip id="78" depart="29.9988" fromJunction="3way_5" toJunction="4way_9"/>
<trip id="79" depart="30.383399999999998" fromJunction="4way_33" toJunction="4way_51"/>
<trip id="80" depart="30.768" fromJunction="4way_37" toJunction="4way_20"/>
<trip id="81" depart="31.1526" fromJunction="4way_37" toJunction="4way_46"/>
<trip id="82" depart="31.5372" fromJunction="3way_24" toJunction="3way_1"/>
<trip id="83" depart="31.9218" fromJunction="3way_47" toJunction="4way_20"/>
<trip id="84" depart="32.3064" fromJunction="3way_4" toJunction="4way_18"/>
<trip id="85" depart="32.691" fromJunction="3way_2" toJunction="3way_55"/>
<trip id="86" depart="33.0756" fromJunction="3way_61" toJunction="4way_52"/>
<trip id="87" depart="33.4602" fromJunction="4way_22" toJunction="3way_32"/>
<trip id="88" depart="33.8448" fromJunction="3way_2" toJunction="4way_12"/>
<trip id="89" depart="34.2294" fromJunction="4way_19" toJunction="3way_39"/>
<trip id="90" depart="34.614" fromJunction="3way_60" toJunction="4way_42"/>
<trip id="91" depart="34.9986" fromJunction="4way_11" toJunction="4way_30"/>
<trip id="92" depart="35.3832" fromJunction="4way_50" toJunction="4way_26"/>
<trip id="93" depart="35.7678" fromJunction="3way_48" toJunction="4way_20"/>
<trip id="94" depart="36.1524" fromJunction="3way_62" toJunction="3way_8"/>
<trip id="95" depart="36.537" fromJunction="4way_30" toJunction="3way_55"/>
<trip id="96" depart="36.9216" fromJunction="4way_49" toJunction="4way_28"/>
<trip id="97" depart="37.3062" fromJunction="3way_59" toJunction="3way_61"/>
<trip id="98" depart="37.6908" fromJunction="4way_25" toJunction="3way_4"/>
<trip id="99" depart="38.0754" fromJunction="4way_51" toJunction="3way_48"/>
<trip id="100" depart="38.46" fromJunction="3way_47" toJunction="3way_16"/>
<trip id="101" depart="38.8446" fromJunction="3way_5" toJunction="3way_2"/>
<trip id="102" depart="39.2292" fromJunction="4way_33" toJunction="4way_43"/>
<trip id="103" depart="39.6138" fromJunction="4way_53" toJunction="4way_26"/>
<trip id="104" depart="39.9984" fromJunction="3way_61" toJunction="4way_54"/>
<trip id="105" depart="40.383" fromJunction="3way_59" toJunction="4way_35"/>
<trip id="106" depart="40.7676" fromJunction="4way_36" toJunction="3way_2"/>
<trip id="107" depart="41.1522" fromJunction="3way_8" toJunction="3way_40"/>
<trip id="108" depart="41.5368" fromJunction="4way_21" toJunction="4way_50"/>
<trip id="109" depart="41.9214" fromJunction="4way_45" toJunction="4way_19"/>
<trip id="110" depart="42.306" fromJunction="4way_52" toJunction="3way_58"/>
<trip id="111" depart="42.690599999999996" fromJunction="4way_38" toJunction="3way_55"/>
<trip id="112" depart="43.0752" fromJunction="3way_62" toJunction="4way_51"/>
<trip id="113" depart="43.4598" fromJunction="4way_20" toJunction="4way_30"/>
<trip id="114" depart="43.8444" fromJunction="3way_62" toJunction="3way_59"/>
<trip id="115" depart="44.229" fromJunction="3way_2" toJunction="4way_18"/>
<trip id="116" depart="44.6136" fromJunction="4way_17" toJunction="3way_62"/>
<trip id="117" depart="44.9982" fromJunction="4way_33" toJunction="3way_16"/>
<trip id="118" depart="45.3828" fromJunction="4way_50" toJunction="3way_58"/>
<trip id="119" depart="45.7674" fromJunction="3way_23" toJunction="4way_37"/>
<trip id="120" depart="46.152" fromJunction="3way_23" toJunction="4way_18"/>
<trip id="121" depart="46.5366" fromJunction="3way_8" toJunction="4way_20"/>
<trip id="122" depart="46.9212" fromJunction="3way_47" toJunction="4way_34"/>
<trip id="123" depart="47.3058" fromJunction="4way_49" toJunction="3way_31"/>
<trip id="124" depart="47.6904" fromJunction="4way_30" toJunction="3way_24"/>
<trip id="125" depart="48.075" fromJunction="4way_28" toJunction="4way_36"/>
<trip id="126" depart="48.4596" fromJunction="3way_6" toJunction="4way_14"/>
<trip id="127" depart="48.8442" fromJunction="4way_50" toJunction="4way_34"/>
<trip id="128" depart="49.2288" fromJunction="3way_57" toJunction="4way_38"/>
<trip id="129" depart="49.6134" fromJunction="3way_15" toJunction="3way_60"/>
<trip id="130" depart="49.998" fromJunction="4way_22" toJunction="3way_1"/>
<trip id="131" depart="50.3826" fromJunction="4way_52" toJunction="4way_43"/>
<trip id="132" depart="50.7672" fromJunction="4way_50" toJunction="3way_58"/>
<trip id="133" depart="51.1518" fromJunction="4way_49" toJunction="3way_4"/>
<trip id="134" depart="51.5364" fromJunction="4way_45" toJunction="4way_46"/>
<trip id="135" depart="51.921" fromJunction="4way_38" toJunction="3way_32"/>
<trip id="136" depart="52.3056" fromJunction="4way_30" toJunction="3way_61"/>
<trip id="137" depart="52.6902" fromJunction="4way_52" toJunction="4way_30"/>
<trip id="138" depart="53.074799999999996" fromJunction="4way_45" toJunction="4way_19"/>
<trip id="139" depart="53.4594" fromJunction="4way_29" toJunction="3way_57"/>
<trip id="140" depart="53.844" fromJunction="3way_1" toJunction="4way_19"/>
<trip id="141" depart="54.2286" fromJunction="3way_31" toJunction="3way_32"/>
<trip id="142" depart="54.6132" fromJunction="4way_41" toJunction="4way_46"/>
<trip id="143" depart="54.9978" fromJunction="4way_27" toJunction="4way_49"/>
<trip id="144" depart="55.3824" fromJunction="3way_31" toJunction="3way_16"/>
<trip id="145" depart="55.767" fromJunction="3way_55" toJunction="4way_21"/>
<trip id="146" depart="56.1516" fromJunction="3way_61" toJunction="4way_10"/>
<trip id="147" depart="56.5362" fromJunction="4way_37" toJunction="3way_6"/>
<trip id="148" depart="56.9208" fromJunction="4way_38" toJunction="4way_46"/>
<trip id="149" depart="57.3054" fromJunction="4way_44" toJunction="4way_14"/>
<trip id="150" depart="57.69" fromJunction="3way_5" toJunction="3way_40"/>
<trip id="151" depart="58.0746" fromJunction="3way_61" toJunction="4way_9"/>
<trip id="152" depart="58.4592" fromJunction="3way_4" toJunction="3way_23"/>
<trip id="153" depart="58.8438" fromJunction="3way_1" toJunction="4way_20"/>
<trip id="154" depart="59.2284" fromJunction="3way_31" toJunction="4way_44"/>
<trip id="155" depart="59.613" fromJunction="3way_6" toJunction="3way_5"/>
<trip id="156" depart="59.9976" fromJunction="3way_60" toJunction="4way_43"/>
<trip id="157" depart="60.3822" fromJunction="4way_34" toJunction="4way_17"/>
<trip id="158" depart="60.766799999999996" fromJunction="4way_20" toJunction="4way_37"/>
<trip id="159" depart="61.1514" fromJunction="3way_23" toJunction="3way_58"/>
<trip id="160" depart="61.536" fromJunction="3way_48" toJunction="3way_4"/>
<trip id="161" depart="61.9206" fromJunction="4way_33" toJunction="3way_59"/>
<trip id="162" depart="62.3052" fromJunction="4way_51" toJunction="4way_43"/>
<trip id="163" depart="62.6898" fromJunction="3way_16" toJunction="3way_57"/>
<trip id="164" depart="63.0744" fromJunction="4way_52" toJunction="3way_47"/>
<trip id="165" depart="63.458999999999996" fromJunction="4way_51" toJunction="3way_4"/>
<trip id="166" depart="63.8436" fromJunction="3way_16" toJunction="3way_59"/>
<trip id="167" depart="64.2282" fromJunction="3way_58" toJunction="4way_50"/>
<trip id="168" depart="64.6128" fromJunction="3way_55" toJunction="3way_16"/>
<trip id="169" depart="64.9974" fromJunction="3way_3" toJunction="4way_33"/>
<trip id="170" depart="65.382" fromJunction="3way_5" toJunction="4way_52"/>
<trip id="171" depart="65.7666" fromJunction="3way_48" toJunction="4way_18"/>
<trip id="172" depart="66.1512" fromJunction="4way_38" toJunction="4way_42"/>
<trip id="173" depart="66.5358" fromJunction="3way_3" toJunction="4way_27"/>
<trip id="174" depart="66.9204" fromJunction="4way_10" toJunction="4way_17"/>
<trip id="175" depart="67.30499999999999" fromJunction="4way_43" toJunction="4way_26"/>
<trip id="176" depart="67.6896" fromJunction="3way_23" toJunction="3way_58"/>
<trip id="177" depart="68.0742" fromJunction="4way_38" toJunction="3way_8"/>
<trip id="178" depart="68.4588" fromJunction="4way_14" toJunction="3way_55"/>
<trip id="179" depart="68.8434" fromJunction="4way_33" toJunction="4way_26"/>
<trip id="180" depart="69.228" fromJunction="4way_33" toJunction="4way_45"/>
<trip id="181" depart="69.6126" fromJunction="3way_8" toJunction="4way_20"/>
<trip id="182" depart="69.9972" fromJunction="4way_51" toJunction="4way_14"/>
<trip id="183" depart="70.3818" fromJunction="3way_40" toJunction="4way_51"/>
<trip id="184" depart="70.7664" fromJunction="4way_27" toJunction="4way_36"/>
<trip id="185" depart="71.151" fromJunction="3way_39" toJunction="3way_60"/>
<trip id="186" depart="71.5356" fromJunction="4way_38" toJunction="4way_52"/>
<trip id="187" depart="71.9202" fromJunction="4way_50" toJunction="4way_33"/>
<trip id="188" depart="72.3048" fromJunction="4way_33" toJunction="4way_37"/>
<trip id="189" depart="72.6894" fromJunction="4way_42" toJunction="4way_38"/>
<trip id="190" depart="73.074" fromJunction="4way_14" toJunction="4way_21"/>
<trip id="191" depart="73.4586" fromJunction="3way_39" toJunction="4way_13"/>
<trip id="192" depart="73.8432" fromJunction="3way_8" toJunction="4way_19"/>
<trip id="193" depart="74.2278" fromJunction="4way_17" toJunction="3way_4"/>
<trip id="194" depart="74.6124" fromJunction="4way_29" toJunction="3way_59"/>
<trip id="195" depart="74.997" fromJunction="4way_38" toJunction="3way_2"/>
<trip id="196" depart="75.3816" fromJunction="3way_55" toJunction="3way_1"/>
<trip id="197" depart="75.7662" fromJunction="4way_22" toJunction="4way_9"/>
<trip id="198" depart="76.1508" fromJunction="4way_30" toJunction="3way_6"/>
<trip id="199" depart="76.5354" fromJunction="4way_33" toJunction="4way_45"/>
<trip id="200" depart="76.92" fromJunction="3way_61" toJunction="3way_40"/>
<trip id="201" depart="77.3046" fromJunction="3way_2" toJunction="4way_11"/>
<trip id="202" depart="77.6892" fromJunction="4way_17" toJunction="3way_1"/>
<trip id="203" depart="78.0738" fromJunction="3way_59" toJunction="3way_5"/>
<trip id="204" depart="78.4584" fromJunction="3way_59" toJunction="3way_61"/>
<trip id="205" depart="78.843" fromJunction="3way_1" toJunction="3way_23"/>
<trip id="206" depart="79.2276" fromJunction="4way_19" toJunction="3way_15"/>
<trip id="207" depart="79.6122" fromJunction="4way_54" toJunction="4way_46"/>
<trip id="208" depart="79.9968" fromJunction="3way_39" toJunction="4way_9"/>
<trip id="209" depart="80.3814" fromJunction="4way_49" toJunction="4way_27"/>
<trip id="210" depart="80.766" fromJunction="3way_4" toJunction="4way_54"/>
<trip id="211" depart="81.1506" fromJunction="3way_57" toJunction="4way_44"/>
<trip id="212" depart="81.5352" fromJunction="4way_35" toJunction="3way_60"/>
<trip id="213" depart="81.9198" fromJunction="4way_35" toJunction="3way_60"/>
<trip id="214" depart="82.3044" fromJunction="4way_17" toJunction="4way_18"/>
<trip id="215" depart="82.689" fromJunction="3way_57" toJunction="4way_34"/>
<trip id="216" depart="83.0736" fromJunction="4way_9" toJunction="4way_12"/>
<trip id="217" depart="83.4582" fromJunction="4way_21" toJunction="3way_24"/>
<trip id="218" depart="83.8428" fromJunction="3way_3" toJunction="4way_22"/>
<trip id="219" depart="84.2274" fromJunction="3way_32" toJunction="3way_61"/>
<trip id="220" depart="84.612" fromJunction="4way_54" toJunction="4way_13"/>
<trip id="221" depart="84.9966" fromJunction="4way_14" toJunction="4way_46"/>
<trip id="222" depart="85.38119999999999" fromJunction="4way_54" toJunction="3way_57"/>
<trip id="223" depart="85.7658" fromJunction="3way_15" toJunction="3way_60"/>
<trip id="224" depart="86.1504" fromJunction="3way_60" toJunction="4way_38"/>
<trip id="225" depart="86.535" fromJunction="3way_4" toJunction="4way_51"/>
<trip id="226" depart="86.9196" fromJunction="4way_45" toJunction="4way_20"/>
<trip id="227" depart="87.3042" fromJunction="3way_16" toJunction="3way_58"/>
<trip id="228" depart="87.6888" fromJunction="4way_28" toJunction="3way_16"/>
<trip id="229" depart="88.07339999999999" fromJunction="3way_47" toJunction="3way_60"/>
<trip id="230" depart="88.458" fromJunction="3way_48" toJunction="4way_25"/>
<trip id="231" depart="88.8426" fromJunction="3way_60" toJunction="4way_29"/>
<trip id="232" depart="89.2272" fromJunction="4way_30" toJunction="4way_10"/>
<trip id="233" depart="89.6118" fromJunction="4way_45" toJunction="4way_27"/>
<trip id="234" depart="89.9964" fromJunction="4way_36" toJunction="4way_30"/>
<trip id="235" depart="90.381" fromJunction="4way_46" toJunction="4way_51"/>
<trip id="236" depart="90.7656" fromJunction="4way_33" toJunction="4way_54"/>
<trip id="237" depart="91.1502" fromJunction="3way_57" toJunction="3way_5"/>
<trip id="238" depart="91.5348" fromJunction="4way_17" toJunction="3way_39"/>
<trip id="239" depart="91.9194" fromJunction="4way_11" toJunction="3way_23"/>
<trip id="240" depart="92.304" fromJunction="4way_53" toJunction="3way_16"/>
<trip id="241" depart="92.6886" fromJunction="4way_26" toJunction="4way_46"/>
<trip id="242" depart="93.0732" fromJunction="4way_50" toJunction="3way_58"/>
<trip id="243" depart="93.4578" fromJunction="4way_9" toJunction="4way_53"/>
<trip id="244" depart="93.8424" fromJunction="3way_58" toJunction="4way_34"/>
<trip id="245" depart="94.227" fromJunction="4way_9" toJunction="4way_33"/>
<trip id="246" depart="94.6116" fromJunction="4way_10" toJunction="3way_60"/>
<trip id="247" depart="94.9962" fromJunction="3way_16" toJunction="3way_48"/>
<trip id="248" depart="95.3808" fromJunction="4way_36" toJunction="4way_18"/>
<trip id="249" depart="95.7654" fromJunction="4way_22" toJunction="3way_32"/>
<trip id="250" depart="96.15" fromJunction="3way_3" toJunction="4way_37"/>
<trip id="251" depart="96.5346" fromJunction="4way_25" toJunction="3way_59"/>
<trip id="252" depart="96.9192" fromJunction="3way_32" toJunction="3way_15"/>
<trip id="253" depart="97.3038" fromJunction="4way_43" toJunction="4way_28"/>
<trip id="254" depart="97.6884" fromJunction="4way_12" toJunction="4way_19"/>
<trip id="255" depart="98.073" fromJunction="3way_32" toJunction="3way_62"/>
<trip id="256" depart="98.4576" fromJunction="4way_45" toJunction="4way_43"/>
<trip id="257" depart="98.8422" fromJunction="3way_58" toJunction="4way_26"/>
<trip id="258" depart="99.2268" fromJunction="4way_12" toJunction="3way_2"/>
<trip id="259" depart="99.6114" fromJunction="3way_16" toJunction="3way_1"/>
<trip id="260" depart="99.996" fromJunction="4way_22" toJunction="4way_18"/>
<trip id="261" depart="100.3806" fromJunction="4way_9" toJunction="3way_6"/>
<trip id="262" depart="100.7652" fromJunction="3way_32" toJunction="3way_2"/>
<trip id="263" depart="101.1498" fromJunction="3way_58" toJunction="4way_19"/>
<trip id="264" depart="101.5344" fromJunction="3way_15" toJunction="3way_62"/>
<trip id="265" depart="101.919" fromJunction="4way_51" toJunction="4way_42"/>
<trip id="266" depart="102.3036" fromJunction="4way_30" toJunction="4way_43"/>
<trip id="267" depart="102.6882" fromJunction="4way_27" toJunction="3way_1"/>
<trip id="268" depart="103.0728" fromJunction="4way_50" toJunction="4way_11"/>
<trip id="269" depart="103.45739999999999" fromJunction="3way_2" toJunction="4way_38"/>
<trip id="270" depart="103.842" fromJunction="4way_13" toJunction="4way_51"/>
<trip id="271" depart="104.2266" fromJunction="3way_32" toJunction="4way_10"/>
<trip id="272" depart="104.6112" fromJunction="3way_6" toJunction="4way_52"/>
<trip id="273" depart="104.9958" fromJunction="4way_18" toJunction="4way_25"/>
<trip id="274" depart="105.3804" fromJunction="3way_6" toJunction="4way_51"/>
<trip id="275" depart="105.765" fromJunction="4way_9" toJunction="3way_61"/>
<trip id="276" depart="106.14959999999999" fromJunction="4way_53" toJunction="4way_19"/>
<trip id="277" depart="106.5342" fromJunction="3way_31" toJunction="4way_19"/>
<trip id="278" depart="106.9188" fromJunction="4way_45" toJunction="4way_46"/>
<trip id="279" depart="107.3034" fromJunction="4way_22" toJunction="4way_10"/>
<trip id="280" depart="107.688" fromJunction="4way_22" toJunction="4way_26"/>
<trip id="281" depart="108.0726" fromJunction="4way_46" toJunction="4way_21"/>
<trip id="282" depart="108.4572" fromJunction="3way_3" toJunction="4way_22"/>
<trip id="283" depart="108.8418" fromJunction="3way_8" toJunction="3way_47"/>
<trip id="284" depart="109.2264" fromJunction="3way_48" toJunction="4way_38"/>
<trip id="285" depart="109.611" fromJunction="4way_53" toJunction="3way_39"/>
<trip id="286" depart="109.9956" fromJunction="4way_14" toJunction="4way_25"/>
<trip id="287" depart="110.3802" fromJunction="4way_35" toJunction="3way_39"/>
<trip id="288" depart="110.7648" fromJunction="3way_5" toJunction="4way_25"/>
<trip id="289" depart="111.1494" fromJunction="3way_60" toJunction="4way_51"/>
<trip id="290" depart="111.534" fromJunction="3way_4" toJunction="3way_3"/>
<trip id="291" depart="111.9186" fromJunction="4way_14" toJunction="3way_4"/>
<trip id="292" depart="112.3032" fromJunction="4way_53" toJunction="4way_28"/>
<trip id="293" depart="112.6878" fromJunction="4way_18" toJunction="4way_43"/>
<trip id="294" depart="113.0724" fromJunction="4way_54" toJunction="3way_48"/>
<trip id="295" depart="113.457" fromJunction="4way_41" toJunction="3way_24"/>
<trip id="296" depart="113.8416" fromJunction="4way_46" toJunction="3way_16"/>
<trip id="297" depart="114.2262" fromJunction="3way_40" toJunction="3way_47"/>
<trip id="298" depart="114.6108" fromJunction="3way_4" toJunction="4way_43"/>
<trip id="299" depart="114.9954" fromJunction="4way_41" toJunction="4way_11"/>
<trip id="300" depart="115.38" fromJunction="3way_60" toJunction="3way_57"/>
<trip id="301" depart="115.7646" fromJunction="3way_16" toJunction="4way_10"/>
<trip id="302" depart="116.1492" fromJunction="3way_32" toJunction="4way_33"/>
<trip id="303" depart="116.5338" fromJunction="3way_31" toJunction="4way_46"/>
<trip id="304" depart="116.9184" fromJunction="3way_32" toJunction="3way_6"/>
<trip id="305" depart="117.303" fromJunction="4way_35" toJunction="4way_50"/>
<trip id="306" depart="117.6876" fromJunction="4way_54" toJunction="3way_8"/>
<trip id="307" depart="118.0722" fromJunction="4way_20" toJunction="3way_24"/>
<trip id="308" depart="118.4568" fromJunction="4way_13" toJunction="4way_27"/>
<trip id="309" depart="118.8414" fromJunction="4way_53" toJunction="4way_46"/>
<trip id="310" depart="119.226" fromJunction="4way_51" toJunction="4way_36"/>
<trip id="311" depart="119.6106" fromJunction="3way_31" toJunction="3way_32"/>
<trip id="312" depart="119.9952" fromJunction="3way_60" toJunction="3way_4"/>
<trip id="313" depart="120.3798" fromJunction="4way_18" toJunction="4way_17"/>
<trip id="314" depart="120.7644" fromJunction="4way_38" toJunction="4way_44"/>
<trip id="315" depart="121.149" fromJunction="3way_15" toJunction="3way_23"/>
<trip id="316" depart="121.53359999999999" fromJunction="4way_28" toJunction="4way_50"/>
<trip id="317" depart="121.9182" fromJunction="4way_30" toJunction="4way_29"/>
<trip id="318" depart="122.3028" fromJunction="3way_8" toJunction="4way_54"/>
<trip id="319" depart="122.6874" fromJunction="3way_31" toJunction="3way_16"/>
<trip id="320" depart="123.072" fromJunction="4way_35" toJunction="4way_51"/>
<trip id="321" depart="123.4566" fromJunction="3way_6" toJunction="4way_37"/>
<trip id="322" depart="123.8412" fromJunction="4way_42" toJunction="4way_49"/>
<trip id="323" depart="124.22579999999999" fromJunction="3way_47" toJunction="3way_60"/>
<trip id="324" depart="124.6104" fromJunction="3way_4" toJunction="4way_37"/>
<trip id="325" depart="124.995" fromJunction="3way_15" toJunction="4way_41"/>
<trip id="326" depart="125.3796" fromJunction="4way_46" toJunction="4way_33"/>
<trip id="327" depart="125.7642" fromJunction="4way_37" toJunction="4way_17"/>
<trip id="328" depart="126.1488" fromJunction="3way_58" toJunction="3way_23"/>
<trip id="329" depart="126.5334" fromJunction="3way_8" toJunction="4way_9"/>
<trip id="330" depart="126.91799999999999" fromJunction="3way_32" toJunction="4way_43"/>
<trip id="331" depart="127.3026" fromJunction="4way_27" toJunction="4way_12"/>
<trip id="332" depart="127.6872" fromJunction="4way_17" toJunction="3way_8"/>
<trip id="333" depart="128.0718" fromJunction="3way_5" toJunction="4way_11"/>
<trip id="334" depart="128.4564" fromJunction="4way_35" toJunction="4way_21"/>
<trip id="335" depart="128.841" fromJunction="4way_26" toJunction="4way_20"/>
<trip id="336" depart="129.2256" fromJunction="4way_9" toJunction="3way_15"/>
<trip id="337" depart="129.6102" fromJunction="3way_40" toJunction="4way_9"/>
<trip id="338" depart="129.9948" fromJunction="4way_28" toJunction="3way_2"/>
<trip id="339" depart="130.3794" fromJunction="4way_11" toJunction="3way_15"/>
<trip id="340" depart="130.764" fromJunction="4way_27" toJunction="4way_12"/>
<trip id="341" depart="131.1486" fromJunction="3way_15" toJunction="4way_38"/>
<trip id="342" depart="131.5332" fromJunction="3way_2" toJunction="4way_45"/>
<trip id="343" depart="131.9178" fromJunction="4way_9" toJunction="4way_26"/>
<trip id="344" depart="132.3024" fromJunction="3way_24" toJunction="4way_18"/>
<trip id="345" depart="132.687" fromJunction="3way_2" toJunction="3way_55"/>
<trip id="346" depart="133.0716" fromJunction="4way_29" toJunction="4way_18"/>
<trip id="347" depart="133.4562" fromJunction="3way_61" toJunction="3way_16"/>
<trip id="348" depart="133.8408" fromJunction="3way_6" toJunction="3way_5"/>
<trip id="349" depart="134.2254" fromJunction="3way_15" toJunction="3way_61"/>
<trip id="350" depart="134.60999999999999" fromJunction="3way_4" toJunction="3way_59"/>
<trip id="351" depart="134.9946" fromJunction="4way_37" toJunction="3way_4"/>
<trip id="352" depart="135.3792" fromJunction="4way_34" toJunction="3way_39"/>
<trip id="353" depart="135.7638" fromJunction="4way_33" toJunction="4way_44"/>
<trip id="354" depart="136.1484" fromJunction="3way_55" toJunction="3way_39"/>
<trip id="355" depart="136.533" fromJunction="4way_18" toJunction="4way_17"/>
<trip id="356" depart="136.9176" fromJunction="4way_44" toJunction="3way_32"/>
<trip id="357" depart="137.3022" fromJunction="4way_22" toJunction="4way_36"/>
<trip id="358" depart="137.6868" fromJunction="4way_53" toJunction="3way_2"/>
<trip id="359" depart="138.0714" fromJunction="4way_45" toJunction="3way_8"/>
<trip id="360" depart="138.456" fromJunction="4way_54" toJunction="4way_51"/>
<trip id="361" depart="138.8406" fromJunction="3way_24" toJunction="4way_36"/>
<trip id="362" depart="139.2252" fromJunction="3way_16" toJunction="4way_10"/>
<trip id="363" depart="139.6098" fromJunction="3way_59" toJunction="3way_24"/>
<trip id="364" depart="139.9944" fromJunction="4way_43" toJunction="4way_49"/>
<trip id="365" depart="140.379" fromJunction="4way_18" toJunction="3way_58"/>
<trip id="366" depart="140.7636" fromJunction="3way_39" toJunction="3way_23"/>
<trip id="367" depart="141.1482" fromJunction="4way_46" toJunction="3way_3"/>
<trip id="368" depart="141.5328" fromJunction="3way_47" toJunction="3way_1"/>
<trip id="369" depart="141.9174" fromJunction="3way_5" toJunction="4way_11"/>
<trip id="370" depart="142.302" fromJunction="4way_20" toJunction="4way_45"/>
<trip id="371" depart="142.6866" fromJunction="4way_10" toJunction="4way_38"/>
<trip id="372" depart="143.0712" fromJunction="4way_26" toJunction="3way_48"/>
<trip id="373" depart="143.4558" fromJunction="4way_18" toJunction="4way_22"/>
<trip id="374" depart="143.8404" fromJunction="4way_45" toJunction="3way_58"/>
<trip id="375" depart="144.225" fromJunction="3way_1" toJunction="3way_16"/>
<trip id="376" depart="144.6096" fromJunction="3way_40" toJunction="3way_60"/>
<trip id="377" depart="144.9942" fromJunction="4way_33" toJunction="4way_37"/>
<trip id="378" depart="145.3788" fromJunction="3way_32" toJunction="4way_25"/>
<trip id="379" depart="145.7634" fromJunction="4way_30" toJunction="4way_45"/>
<trip id="380" depart="146.148" fromJunction="3way_16" toJunction="4way_54"/>
<trip id="381" depart="146.5326" fromJunction="4way_52" toJunction="4way_38"/>
<trip id="382" depart="146.9172" fromJunction="3way_60" toJunction="4way_43"/>