<?xml version="1.0" encoding="UTF-8"?>
<nodes xmlns:xsi="http://www.w3.org/2001/XMLSchema-instance" xsi:noNamespaceSchemaLocation="http://sumo.dlr.de/xsd/nodes_file.xsd">
    <node id="3way_1" x="100.00" y="0.00" type="traffic_light" tlLayout="opposites"/>
    <node id="3way_13" x="600.00" y="-100.00" type="traffic_light" tlLayout="opposites"/>
    <node id="3way_14" x="0.00" y="-200.00" type="traffic_light" tlLayout="opposites"/>
    <node id="3way_2" x="200.00" y="0.00" type="traffic_light" tlLayout="opposites"/>
    <node id="3way_20" x="600.00" y="-200.00" type="traffic_light" tlLayout="opposites"/>
    <node id="3way_21" x="0.00" y="-300.00" type="traffic_light" tlLayout="opposites"/>
    <node id="3way_27" x="600.00" y="-300.00" type="traffic_light" tlLayout="opposites"/>
    <node id="3way_28" x="0.00" y="-400.00" type="traffic_light" tlLayout="opposites"/>
    <node id="3way_3" x="300.00" y="0.00" type="traffic_light" tlLayout="opposites"/>
    <node id="3way_34" x="600.00" y="-400.00" type="traffic_light" tlLayout="opposites"/>
    <node id="3way_35" x="0.00" y="-500.00" type="traffic_light" tlLayout="opposites"/>
    <node id="3way_4" x="400.00" y="0.00" type="traffic_light" tlLayout="opposites"/>
    <node id="3way_41" x="600.00" y="-500.00" type="traffic_light" tlLayout="opposites"/>
    <node id="3way_43" x="100.00" y="-600.00" type="traffic_light" tlLayout="opposites"/>
    <node id="3way_44" x="200.00" y="-600.00" type="traffic_light" tlLayout="opposites"/>
    <node id="3way_45" x="300.00" y="-600.00" type="traffic_light" tlLayout="opposites"/>
    <node id="3way_46" x="400.00" y="-600.00" type="traffic_light" tlLayout="opposites"/>
    <node id="3way_47" x="500.00" y="-600.00" type="traffic_light" tlLayout="opposites"/>
    <node id="3way_5" x="500.00" y="0.00" type="traffic_light" tlLayout="opposites"/>
    <node id="3way_7" x="0.00" y="-100.00" type="traffic_light" tlLayout="opposites"/>
    <node id="4way_10" x="300.00" y="-100.00" type="traffic_light" tlLayout="opposites"/>
    <node id="4way_11" x="400.00" y="-100.00" type="traffic_light" tlLayout="opposites"/>
    <node id="4way_12" x="500.00" y="-100.00" type="traffic_light" tlLayout="opposites"/>
    <node id="4way_15" x="100.00" y="-200.00" type="traffic_light" tlLayout="opposites"/>
    <node id="4way_16" x="200.00" y="-200.00" type="traffic_light" tlLayout="opposites"/>
    <node id="4way_17" x="300.00" y="-200.00" type="traffic_light" tlLayout="opposites"/>
    <node id="4way_18" x="400.00" y="-200.00" type="traffic_light" tlLayout="opposites"/>
    <node id="4way_19" x="500.00" y="-200.00" type="traffic_light" tlLayout="opposites"/>
    <node id="4way_22" x="100.00" y="-300.00" type="traffic_light" tlLayout="opposites"/>
    <node id="4way_23" x="200.00" y="-300.00" type="traffic_light" tlLayout="opposites"/>
    <node id="4way_24" x="300.00" y="-300.00" type="traffic_light" tlLayout="opposites"/>
    <node id="4way_25" x="400.00" y="-300.00" type="traffic_light" tlLayout="opposites"/>
    <node id="4way_26" x="500.00" y="-300.00" type="traffic_light" tlLayout="opposites"/>
    <node id="4way_29" x="100.00" y="-400.00" type="traffic_light" tlLayout="opposites"/>
    <node id="4way_30" x="200.00" y="-400.00" type="traffic_light" tlLayout="opposites"/>
    <node id="4way_31" x="300.00" y="-400.00" type="traffic_light" tlLayout="opposites"/>
    <node id="4way_32" x="400.00" y="-400.00" type="traffic_light" tlLayout="opposites"/>
    <node id="4way_33" x="500.00" y="-400.00" type="traffic_light" tlLayout="opposites"/>
    <node id="4way_36" x="100.00" y="-500.00" type="traffic_light" tlLayout="opposites"/>
    <node id="4way_37" x="200.00" y="-500.00" type="traffic_light" tlLayout="opposites"/>
    <node id="4way_38" x="300.00" y="-500.00" type="traffic_light" tlLayout="opposites"/>
    <node id="4way_39" x="400.00" y="-500.00" type="traffic_light" tlLayout="opposites"/>
    <node id="4way_40" x="500.00" y="-500.00" type="traffic_light" tlLayout="opposites"/>
    <node id="4way_8" x="100.00" y="-100.00" type="traffic_light" tlLayout="opposites"/>
    <node id="4way_9" x="200.00" y="-100.00" type="traffic_light" tlLayout="opposites"/>
</nodes>
