<?xml version="1.0" encoding="UTF-8"?>
<edges xmlns:xsi="http://www.w3.org/2001/XMLSchema-instance" xsi:noNamespaceSchemaLocation="http://sumo.dlr.de/xsd/edges_file.xsd">
    <edge from="3way_1" id="1_3way_1to3way_2" to="3way_2" spreadType="roadCenter" numLanes="1" priority="1"/>
    <edge from="3way_2" id="1_3way_2to3way_1" to="3way_1" spreadType="roadCenter" numLanes="1" priority="1"/>
    <edge from="3way_1" id="2_3way_1to3way_9" to="3way_9" spreadType="roadCenter" numLanes="1" priority="1" shape="100.00,0.00 0.00,0.00 0.00,-100.00"/>
    <edge from="3way_9" id="2_3way_9to3way_1" to="3way_1" spreadType="roadCenter" numLanes="1" priority="1" shape="0.00,-100.00 0.00,0.00 100.00,0.00"/>
    <edge from="3way_1" id="3_3way_1to4way_10" to="4way_10" spreadType="roadCenter" numLanes="1" priority="0"/>
    <edge from="4way_10" id="3_4way_10to3way_1" to="3way_1" spreadType="roadCenter" numLanes="1" priority="0"/>
    <edge from="3way_17" id="4_3way_17to3way_26" to="3way_26" spreadType="roadCenter" numLanes="1" priority="1"/>
    <edge from="3way_26" id="4_3way_26to3way_17" to="3way_17" spreadType="roadCenter" numLanes="1" priority="1"/>
    <edge from="3way_7" id="5_3way_7to3way_17" to="3way_17" spreadType="roadCenter" numLanes="1" priority="1" shape="700.00,0.00 800.00,0.00 800.00,-100.00"/>
    <edge from="3way_17" id="5_3way_17to3way_7" to="3way_7" spreadType="roadCenter" numLanes="1" priority="1" shape="800.00,-100.00 800.00,0.00 700.00,0.00"/>
    <edge from="3way_17" id="6_3way_17to4way_16" to="4way_16" spreadType="roadCenter" numLanes="1" priority="0"/>
    <edge from="4way_16" id="6_4way_16to3way_17" to="3way_17" spreadType="roadCenter" numLanes="1" priority="0"/>
    <edge from="3way_18" id="7_3way_18to3way_27" to="3way_27" spreadType="roadCenter" numLanes="1" priority="1"/>
    <edge from="3way_27" id="7_3way_27to3way_18" to="3way_18" spreadType="roadCenter" numLanes="1" priority="1"/>
    <edge from="3way_18" id="8_3way_18to3way_9" to="3way_9" spreadType="roadCenter" numLanes="1" priority="1"/>
    <edge from="3way_9" id="8_3way_9to3way_18" to="3way_18" spreadType="roadCenter" numLanes="1" priority="1"/>
    <edge from="3way_18" id="9_3way_18to4way_19" to="4way_19" spreadType="roadCenter" numLanes="1" priority="0"/>
    <edge from="4way_19" id="9_4way_19to3way_18" to="3way_18" spreadType="roadCenter" numLanes="1" priority="0"/>
    <edge from="3way_2" id="10_3way_2to3way_3" to="3way_3" spreadType="roadCenter" numLanes="1" priority="1"/>
    <edge from="3way_3" id="10_3way_3to3way_2" to="3way_2" spreadType="roadCenter" numLanes="1" priority="1"/>
    <edge from="3way_2" id="11_3way_2to4way_11" to="4way_11" spreadType="roadCenter" numLanes="1" priority="0"/>
    <edge from="4way_11" id="11_4way_11to3way_2" to="3way_2" spreadType="roadCenter" numLanes="1" priority="0"/>
    <edge from="3way_26" id="12_3way_26to3way_35" to="3way_35" spreadType="roadCenter" numLanes="1" priority="1"/>
    <edge from="3way_35" id="12_3way_35to3way_26" to="3way_26" spreadType="roadCenter" numLanes="1" priority="1"/>
    <edge from="3way_26" id="13_3way_26to4way_25" to="4way_25" spreadType="roadCenter" numLanes="1" priority="0"/>
    <edge from="4way_25" id="13_4way_25to3way_26" to="3way_26" spreadType="roadCenter" numLanes="1" priority="0"/>
    <edge from="3way_27" id="14_3way_27to3way_36" to="3way_36" spreadType="roadCenter" numLanes="1" priority="1"/>
    <edge from="3way_36" id="14_3way_36to3way_27" to="3way_27" spreadType="roadCenter" numLanes="1" priority="1"/>
    <edge from="3way_27" id="15_3way_27to4way_28" to="4way_28" spreadType="roadCenter" numLanes="1" priority="0"/>
    <edge from="4way_28" id="15_4way_28to3way_27" to="3way_27" spreadType="roadCenter" numLanes="1" priority="0"/>
    <edge from="3way_3" id="16_3way_3to3way_4" to="3way_4" spreadType="roadCenter" numLanes="1" priority="1"/>
    <edge from="3way_4" id="16_3way_4to3way_3" to="3way_3" spreadType="roadCenter" numLanes="1" priority="1"/>
    <edge from="3way_3" id="17_3way_3to4way_12" to="4way_12" spreadType="roadCenter" numLanes="1" priority="0"/>
    <edge from="4way_12" id="17_4way_12to3way_3" to="3way_3" spreadType="roadCenter" numLanes="1" priority="0"/>
    <edge from="3way_35" id="18_3way_35to3way_44" to="3way_44" spreadType="roadCenter" numLanes="1" priority="1"/>
    <edge from="3way_44" id="18_3way_44to3way_35" to="3way_35" spreadType="roadCenter" numLanes="1" priority="1"/>
    <edge from="3way_35" id="19_3way_35to4way_34" to="4way_34" spreadType="roadCenter" numLanes="1" priority="0"/>
    <edge from="4way_34" id="19_4way_34to3way_35" to="3way_35" spreadType="roadCenter" numLanes="1" priority="0"/>
    <edge from="3way_36" id="20_3way_36to3way_45" to="3way_45" spreadType="roadCenter" numLanes="1" priority="1"/>
    <edge from="3way_45" id="20_3way_45to3way_36" to="3way_36" spreadType="roadCenter" numLanes="1" priority="1"/>
    <edge from="3way_36" id="21_3way_36to4way_37" to="4way_37" spreadType="roadCenter" numLanes="1" priority="0"/>
    <edge from="4way_37" id="21_4way_37to3way_36" to="3way_36" spreadType="roadCenter" numLanes="1" priority="0"/>
    <edge from="3way_4" id="22_3way_4to3way_5" to="3way_5" spreadType="roadCenter" numLanes="1" priority="1"/>
    <edge from="3way_5" id="22_3way_5to3way_4" to="3way_4" spreadType="roadCenter" numLanes="1" priority="1"/>
    <edge from="3way_4" id="23_3way_4to4way_13" to="4way_13" spreadType="roadCenter" numLanes="1" priority="0"/>
    <edge from="4way_13" id="23_4way_13to3way_4" to="3way_4" spreadType="roadCenter" numLanes="1" priority="0"/>
    <edge from="3way_44" id="24_3way_44to3way_53" to="3way_53" spreadType="roadCenter" numLanes="1" priority="1"/>
    <edge from="3way_53" id="24_3way_53to3way_44" to="3way_44" spreadType="roadCenter" numLanes="1" priority="1"/>
    <edge from="3way_44" id="25_3way_44to4way_43" to="4way_43" spreadType="roadCenter" numLanes="1" priority="0"/>
    <edge from="4way_43" id="25_4way_43to3way_44" to="3way_44" spreadType="roadCenter" numLanes="1" priority="0"/>
    <edge from="3way_45" id="26_3way_45to3way_54" to="3way_54" spreadType="roadCenter" numLanes="1" priority="1"/>
    <edge from="3way_54" id="26_3way_54to3way_45" to="3way_45" spreadType="roadCenter" numLanes="1" priority="1"/>
    <edge from="3way_45" id="27_3way_45to4way_46" to="4way_46" spreadType="roadCenter" numLanes="1" priority="0"/>
    <edge from="4way_46" id="27_4way_46to3way_45" to="3way_45" spreadType="roadCenter" numLanes="1" priority="0"/>
    <edge from="3way_5" id="28_3way_5to3way_6" to="3way_6" spreadType="roadCenter" numLanes="1" priority="1"/>
    <edge from="3way_6" id="28_3way_6to3way_5" to="3way_5" spreadType="roadCenter" numLanes="1" priority="1"/>
    <edge from="3way_5" id="29_3way_5to4way_14" to="4way_14" spreadType="roadCenter" numLanes="1" priority="0"/>
    <edge from="4way_14" id="29_4way_14to3way_5" to="3way_5" spreadType="roadCenter" numLanes="1" priority="0"/>
    <edge from="3way_53" id="30_3way_53to3way_62" to="3way_62" spreadType="roadCenter" numLanes="1" priority="1"/>
    <edge from="3way_62" id="30_3way_62to3way_53" to="3way_53" spreadType="roadCenter" numLanes="1" priority="1"/>
    <edge from="3way_53" id="31_3way_53to4way_52" to="4way_52" spreadType="roadCenter" numLanes="1" priority="0"/>
    <edge from="4way_52" id="31_4way_52to3way_53" to="3way_53" spreadType="roadCenter" numLanes="1" priority="0"/>
    <edge from="3way_54" id="32_3way_54to3way_63" to="3way_63" spreadType="roadCenter" numLanes="1" priority="1"/>
    <edge from="3way_63" id="32_3way_63to3way_54" to="3way_54" spreadType="roadCenter" numLanes="1" priority="1"/>
    <edge from="3way_54" id="33_3way_54to4way_55" to="4way_55" spreadType="roadCenter" numLanes="1" priority="0"/>
    <edge from="4way_55" id="33_4way_55to3way_54" to="3way_54" spreadType="roadCenter" numLanes="1" priority="0"/>
    <edge from="3way_6" id="34_3way_6to3way_7" to="3way_7" spreadType="roadCenter" numLanes="1" priority="1"/>
    <edge from="3way_7" id="34_3way_7to3way_6" to="3way_6" spreadType="roadCenter" numLanes="1" priority="1"/>
    <edge from="3way_6" id="35_3way_6to4way_15" to="4way_15" spreadType="roadCenter" numLanes="1" priority="0"/>
    <edge from="4way_15" id="35_4way_15to3way_6" to="3way_6" spreadType="roadCenter" numLanes="1" priority="0"/>
    <edge from="3way_62" id="36_3way_62to3way_71" to="3way_71" spreadType="roadCenter" numLanes="1" priority="1"/>
    <edge from="3way_71" id="36_3way_71to3way_62" to="3way_62" spreadType="roadCenter" numLanes="1" priority="1"/>
    <edge from="3way_62" id="37_3way_62to4way_61" to="4way_61" spreadType="roadCenter" numLanes="1" priority="0"/>
    <edge from="4way_61" id="37_4way_61to3way_62" to="3way_62" spreadType="roadCenter" numLanes="1" priority="0"/>
    <edge from="3way_73" id="38_3way_73to3way_63" to="3way_63" spreadType="roadCenter" numLanes="1" priority="1" shape="100.00,-800.00 0.00,-800.00 0.00,-700.00"/>
    <edge from="3way_63" id="38_3way_63to3way_73" to="3way_73" spreadType="roadCenter" numLanes="1" priority="1" shape="0.00,-700.00 0.00,-800.00 100.00,-800.00"/>
    <edge from="3way_63" id="39_3way_63to4way_64" to="4way_64" spreadType="roadCenter" numLanes="1" priority="0"/>
    <edge from="4way_64" id="39_4way_64to3way_63" to="3way_63" spreadType="roadCenter" numLanes="1" priority="0"/>
    <edge from="3way_7" id="40_3way_7to4way_16" to="4way_16" spreadType="roadCenter" numLanes="1" priority="0"/>
    <edge from="4way_16" id="40_4way_16to3way_7" to="3way_7" spreadType="roadCenter" numLanes="1" priority="0"/>
    <edge from="3way_71" id="41_3way_71to3way_79" to="3way_79" spreadType="roadCenter" numLanes="1" priority="1" shape="800.00,-700.00 800.00,-800.00 700.00,-800.00"/>
    <edge from="3way_79" id="41_3way_79to3way_71" to="3way_71" spreadType="roadCenter" numLanes="1" priority="1" shape="700.00,-800.00 800.00,-800.00 800.00,-700.00"/>
    <edge from="3way_71" id="42_3way_71to4way_70" to="4way_70" spreadType="roadCenter" numLanes="1" priority="0"/>
    <edge from="4way_70" id="42_4way_70to3way_71" to="3way_71" spreadType="roadCenter" numLanes="1" priority="0"/>
    <edge from="3way_73" id="43_3way_73to3way_74" to="3way_74" spreadType="roadCenter" numLanes="1" priority="1"/>
    <edge from="3way_74" id="43_3way_74to3way_73" to="3way_73" spreadType="roadCenter" numLanes="1" priority="1"/>
    <edge from="3way_73" id="44_3way_73to4way_64" to="4way_64" spreadType="roadCenter" numLanes="1" priority="0"/>
    <edge from="4way_64" id="44_4way_64to3way_73" to="3way_73" spreadType="roadCenter" numLanes="1" priority="0"/>
    <edge from="3way_74" id="45_3way_74to3way_75" to="3way_75" spreadType="roadCenter" numLanes="1" priority="1"/>
    <edge from="3way_75" id="45_3way_75to3way_74" to="3way_74" spreadType="roadCenter" numLanes="1" priority="1"/>
    <edge from="3way_74" id="46_3way_74to4way_65" to="4way_65" spreadType="roadCenter" numLanes="1" priority="0"/>
    <edge from="4way_65" id="46_4way_65to3way_74" to="3way_74" spreadType="roadCenter" numLanes="1" priority="0"/>
    <edge from="3way_75" id="47_3way_75to3way_76" to="3way_76" spreadType="roadCenter" numLanes="1" priority="1"/>
    <edge from="3way_76" id="47_3way_76to3way_75" to="3way_75" spreadType="roadCenter" numLanes="1" priority="1"/>
    <edge from="3way_75" id="48_3way_75to4way_66" to="4way_66" spreadType="roadCenter" numLanes="1" priority="0"/>
    <edge from="4way_66" id="48_4way_66to3way_75" to="3way_75" spreadType="roadCenter" numLanes="1" priority="0"/>
    <edge from="3way_76" id="49_3way_76to3way_77" to="3way_77" spreadType="roadCenter" numLanes="1" priority="1"/>
    <edge from="3way_77" id="49_3way_77to3way_76" to="3way_76" spreadType="roadCenter" numLanes="1" priority="1"/>
    <edge from="3way_76" id="50_3way_76to4way_67" to="4way_67" spreadType="roadCenter" numLanes="1" priority="0"/>
    <edge from="4way_67" id="50_4way_67to3way_76" to="3way_76" spreadType="roadCenter" numLanes="1" priority="0"/>
    <edge from="3way_77" id="51_3way_77to3way_78" to="3way_78" spreadType="roadCenter" numLanes="1" priority="1"/>
    <edge from="3way_78" id="51_3way_78to3way_77" to="3way_77" spreadType="roadCenter" numLanes="1" priority="1"/>
    <edge from="3way_77" id="52_3way_77to4way_68" to="4way_68" spreadType="roadCenter" numLanes="1" priority="0"/>
    <edge from="4way_68" id="52_4way_68to3way_77" to="3way_77" spreadType="roadCenter" numLanes="1" priority="0"/>
    <edge from="3way_78" id="53_3way_78to3way_79" to="3way_79" spreadType="roadCenter" numLanes="1" priority="1"/>
    <edge from="3way_79" id="53_3way_79to3way_78" to="3way_78" spreadType="roadCenter" numLanes="1" priority="1"/>
    <edge from="3way_78" id="54_3way_78to4way_69" to="4way_69" spreadType="roadCenter" numLanes="1" priority="0"/>
    <edge from="4way_69" id="54_4way_69to3way_78" to="3way_78" spreadType="roadCenter" numLanes="1" priority="0"/>
    <edge from="3way_79" id="55_3way_79to4way_70" to="4way_70" spreadType="roadCenter" numLanes="1" priority="0"/>
    <edge from="4way_70" id="55_4way_70to3way_79" to="3way_79" spreadType="roadCenter" numLanes="1" priority="0"/>
    <edge from="3way_9" id="56_3way_9to4way_10" to="4way_10" spreadType="roadCenter" numLanes="1" priority="0"/>
    <edge from="4way_10" id="56_4way_10to3way_9" to="3way_9" spreadType="roadCenter" numLanes="1" priority="0"/>
    <edge from="4way_10" id="57_4way_10to4way_11" to="4way_11" spreadType="roadCenter" numLanes="1" priority="1"/>
    <edge from="4way_11" id="57_4way_11to4way_10" to="4way_10" spreadType="roadCenter" numLanes="1" priority="1"/>
    <edge from="4way_10" id="58_4way_10to4way_19" to="4way_19" spreadType="roadCenter" numLanes="1" priority="1"/>
    <edge from="4way_19" id="58_4way_19to4way_10" to="4way_10" spreadType="roadCenter" numLanes="1" priority="1"/>
    <edge from="4way_11" id="59_4way_11to4way_12" to="4way_12" spreadType="roadCenter" numLanes="1" priority="1"/>
    <edge from="4way_12" id="59_4way_12to4way_11" to="4way_11" spreadType="roadCenter" numLanes="1" priority="1"/>
    <edge from="4way_11" id="60_4way_11to4way_20" to="4way_20" spreadType="roadCenter" numLanes="1" priority="1"/>
    <edge from="4way_20" id="60_4way_20to4way_11" to="4way_11" spreadType="roadCenter" numLanes="1" priority="1"/>
    <edge from="4way_12" id="61_4way_12to4way_13" to="4way_13" spreadType="roadCenter" numLanes="1" priority="1"/>
    <edge from="4way_13" id="61_4way_13to4way_12" to="4way_12" spreadType="roadCenter" numLanes="1" priority="1"/>
    <edge from="4way_12" id="62_4way_12to4way_21" to="4way_21" spreadType="roadCenter" numLanes="1" priority="1"/>
    <edge from="4way_21" id="62_4way_21to4way_12" to="4way_12" spreadType="roadCenter" numLanes="1" priority="1"/>
    <edge from="4way_13" id="63_4way_13to4way_14" to="4way_14" spreadType="roadCenter" numLanes="1" priority="1"/>
    <edge from="4way_14" id="63_4way_14to4way_13" to="4way_13" spreadType="roadCenter" numLanes="1" priority="1"/>
    <edge from="4way_13" id="64_4way_13to4way_22" to="4way_22" spreadType="roadCenter" numLanes="1" priority="1"/>
    <edge from="4way_22" id="64_4way_22to4way_13" to="4way_13" spreadType="roadCenter" numLanes="1" priority="1"/>
    <edge from="4way_14" id="65_4way_14to4way_15" to="4way_15" spreadType="roadCenter" numLanes="1" priority="1"/>
    <edge from="4way_15" id="65_4way_15to4way_14" to="4way_14" spreadType="roadCenter" numLanes="1" priority="1"/>
    <edge from="4way_14" id="66_4way_14to4way_23" to="4way_23" spreadType="roadCenter" numLanes="1" priority="1"/>
    <edge from="4way_23" id="66_4way_23to4way_14" to="4way_14" spreadType="roadCenter" numLanes="1" priority="1"/>
    <edge from="4way_15" id="67_4way_15to4way_16" to="4way_16" spreadType="roadCenter" numLanes="1" priority="1"/>
    <edge from="4way_16" id="67_4way_16to4way_15" to="4way_15" spreadType="roadCenter" numLanes="1" priority="1"/>
    <edge from="4way_15" id="68_4way_15to4way_24" to="4way_24" spreadType="roadCenter" numLanes="1" priority="1"/>
    <edge from="4way_24" id="68_4way_24to4way_15" to="4way_15" spreadType="roadCenter" numLanes="1" priority="1"/>
    <edge from="4way_16" id="69_4way_16to4way_25" to="4way_25" spreadType="roadCenter" numLanes="1" priority="1"/>
    <edge from="4way_25" id="69_4way_25to4way_16" to="4way_16" spreadType="roadCenter" numLanes="1" priority="1"/>
    <edge from="4way_19" id="70_4way_19to4way_20" to="4way_20" spreadType="roadCenter" numLanes="1" priority="1"/>
    <edge from="4way_20" id="70_4way_20to4way_19" to="4way_19" spreadType="roadCenter" numLanes="1" priority="1"/>
    <edge from="4way_19" id="71_4way_19to4way_28" to="4way_28" spreadType="roadCenter" numLanes="1" priority="1"/>
    <edge from="4way_28" id="71_4way_28to4way_19" to="4way_19" spreadType="roadCenter" numLanes="1" priority="1"/>
    <edge from="4way_20" id="72_4way_20to4way_21" to="4way_21" spreadType="roadCenter" numLanes="1" priority="1"/>
    <edge from="4way_21" id="72_4way_21to4way_20" to="4way_20" spreadType="roadCenter" numLanes="1" priority="1"/>
    <edge from="4way_20" id="73_4way_20to4way_29" to="4way_29" spreadType="roadCenter" numLanes="1" priority="1"/>
    <edge from="4way_29" id="73_4way_29to4way_20" to="4way_20" spreadType="roadCenter" numLanes="1" priority="1"/>
    <edge from="4way_21" id="74_4way_21to4way_22" to="4way_22" spreadType="roadCenter" numLanes="1" priority="1"/>
    <edge from="4way_22" id="74_4way_22to4way_21" to="4way_21" spreadType="roadCenter" numLanes="1" priority="1"/>
    <edge from="4way_21" id="75_4way_21to4way_30" to="4way_30" spreadType="roadCenter" numLanes="1" priority="1"/>
    <edge from="4way_30" id="75_4way_30to4way_21" to="4way_21" spreadType="roadCenter" numLanes="1" priority="1"/>
    <edge from="4way_22" id="76_4way_22to4way_23" to="4way_23" spreadType="roadCenter" numLanes="1" priority="1"/>
    <edge from="4way_23" id="76_4way_23to4way_22" to="4way_22" spreadType="roadCenter" numLanes="1" priority="1"/>
    <edge from="4way_22" id="77_4way_22to4way_31" to="4way_31" spreadType="roadCenter" numLanes="1" priority="1"/>
    <edge from="4way_31" id="77_4way_31to4way_22" to="4way_22" spreadType="roadCenter" numLanes="1" priority="1"/>
    <edge from="4way_23" id="78_4way_23to4way_24" to="4way_24" spreadType="roadCenter" numLanes="1" priority="1"/>
    <edge from="4way_24" id="78_4way_24to4way_23" to="4way_23" spreadType="roadCenter" numLanes="1" priority="1"/>
    <edge from="4way_23" id="79_4way_23to4way_32" to="4way_32" spreadType="roadCenter" numLanes="1" priority="1"/>
    <edge from="4way_32" id="79_4way_32to4way_23" to="4way_23" spreadType="roadCenter" numLanes="1" priority="1"/>
    <edge from="4way_24" id="80_4way_24to4way_25" to="4way_25" spreadType="roadCenter" numLanes="1" priority="1"/>
    <edge from="4way_25" id="80_4way_25to4way_24" to="4way_24" spreadType="roadCenter" numLanes="1" priority="1"/>
    <edge from="4way_24" id="81_4way_24to4way_33" to="4way_33" spreadType="roadCenter" numLanes="1" priority="1"/>
    <edge from="4way_33" id="81_4way_33to4way_24" to="4way_24" spreadType="roadCenter" numLanes="1" priority="1"/>
    <edge from="4way_25" id="82_4way_25to4way_34" to="4way_34" spreadType="roadCenter" numLanes="1" priority="1"/>
    <edge from="4way_34" id="82_4way_34to4way_25" to="4way_25" spreadType="roadCenter" numLanes="1" priority="1"/>
    <edge from="4way_28" id="83_4way_28to4way_29" to="4way_29" spreadType="roadCenter" numLanes="1" priority="1"/>
    <edge from="4way_29" id="83_4way_29to4way_28" to="4way_28" spreadType="roadCenter" numLanes="1" priority="1"/>
    <edge from="4way_28" id="84_4way_28to4way_37" to="4way_37" spreadType="roadCenter" numLanes="1" priority="1"/>
    <edge from="4way_37" id="84_4way_37to4way_28" to="4way_28" spreadType="roadCenter" numLanes="1" priority="1"/>
    <edge from="4way_29" id="85_4way_29to4way_30" to="4way_30" spreadType="roadCenter" numLanes="1" priority="1"/>
    <edge from="4way_30" id="85_4way_30to4way_29" to="4way_29" spreadType="roadCenter" numLanes="1" priority="1"/>
    <edge from="4way_29" id="86_4way_29to4way_38" to="4way_38" spreadType="roadCenter" numLanes="1" priority="1"/>
    <edge from="4way_38" id="86_4way_38to4way_29" to="4way_29" spreadType="roadCenter" numLanes="1" priority="1"/>
    <edge from="4way_30" id="87_4way_30to4way_31" to="4way_31" spreadType="roadCenter" numLanes="1" priority="1"/>
    <edge from="4way_31" id="87_4way_31to4way_30" to="4way_30" spreadType="roadCenter" numLanes="1" priority="1"/>
    <edge from="4way_30" id="88_4way_30to4way_39" to="4way_39" spreadType="roadCenter" numLanes="1" priority="1"/>
    <edge from="4way_39" id="88_4way_39to4way_30" to="4way_30" spreadType="roadCenter" numLanes="1" priority="1"/>
    <edge from="4way_31" id="89_4way_31to4way_32" to="4way_32" spreadType="roadCenter" numLanes="1" priority="1"/>
    <edge from="4way_32" id="89_4way_32to4way_31" to="4way_31" spreadType="roadCenter" numLanes="1" priority="1"/>
    <edge from="4way_31" id="90_4way_31to4way_40" to="4way_40" spreadType="roadCenter" numLanes="1" priority="1"/>
    <edge from="4way_40" id="90_4way_40to4way_31" to="4way_31" spreadType="roadCenter" numLanes="1" priority="1"/>
    <edge from="4way_32" id="91_4way_32to4way_33" to="4way_33" spreadType="roadCenter" numLanes="1" priority="1"/>
    <edge from="4way_33" id="91_4way_33to4way_32" to="4way_32" spreadType="roadCenter" numLanes="1" priority="1"/>
    <edge from="4way_32" id="92_4way_32to4way_41" to="4way_41" spreadType="roadCenter" numLanes="1" priority="1"/>
    <edge from="4way_41" id="92_4way_41to4way_32" to="4way_32" spreadType="roadCenter" numLanes="1" priority="1"/>
    <edge from="4way_33" id="93_4way_33to4way_34" to="4way_34" spreadType="roadCenter" numLanes="1" priority="1"/>
    <edge from="4way_34" id="93_4way_34to4way_33" to="4way_33" spreadType="roadCenter" numLanes="1" priority="1"/>
    <edge from="4way_33" id="94_4way_33to4way_42" to="4way_42" spreadType="roadCenter" numLanes="1" priority="1"/>
    <edge from="4way_42" id="94_4way_42to4way_33" to="4way_33" spreadType="roadCenter" numLanes="1" priority="1"/>
    <edge from="4way_34" id="95_4way_34to4way_43" to="4way_43" spreadType="roadCenter" numLanes="1" priority="1"/>
    <edge from="4way_43" id="95_4way_43to4way_34" to="4way_34" spreadType="roadCenter" numLanes="1" priority="1"/>
    <edge from="4way_37" id="96_4way_37to4way_38" to="4way_38" spreadType="roadCenter" numLanes="1" priority="1"/>
    <edge from="4way_38" id="96_4way_38to4way_37" to="4way_37" spreadType="roadCenter" numLanes="1" priority="1"/>
    <edge from="4way_37" id="97_4way_37to4way_46" to="4way_46" spreadType="roadCenter" numLanes="1" priority="1"/>
    <edge from="4way_46" id="97_4way_46to4way_37" to="4way_37" spreadType="roadCenter" numLanes="1" priority="1"/>
    <edge from="4way_38" id="98_4way_38to4way_39" to="4way_39" spreadType="roadCenter" numLanes="1" priority="1"/>
    <edge from="4way_39" id="98_4way_39to4way_38" to="4way_38" spreadType="roadCenter" numLanes="1" priority="1"/>
    <edge from="4way_38" id="99_4way_38to4way_47" to="4way_47" spreadType="roadCenter" numLanes="1" priority="1"/>
    <edge from="4way_47" id="99_4way_47to4way_38" to="4way_38" spreadType="roadCenter" numLanes="1" priority="1"/>
    <edge from="4way_39" id="100_4way_39to4way_40" to="4way_40" spreadType="roadCenter" numLanes="1" priority="1"/>
    <edge from="4way_40" id="100_4way_40to4way_39" to="4way_39" spreadType="roadCenter" numLanes="1" priority="1"/>
    <edge from="4way_39" id="101_4way_39to4way_48" to="4way_48" spreadType="roadCenter" numLanes="1" priority="1"/>
    <edge from="4way_48" id="101_4way_48to4way_39" to="4way_39" spreadType="roadCenter" numLanes="1" priority="1"/>
    <edge from="4way_40" id="102_4way_40to4way_41" to="4way_41" spreadType="roadCenter" numLanes="1" priority="1"/>
    <edge from="4way_41" id="102_4way_41to4way_40" to="4way_40" spreadType="roadCenter" numLanes="1" priority="1"/>
    <edge from="4way_40" id="103_4way_40to4way_49" to="4way_49" spreadType="roadCenter" numLanes="1" priority="1"/>
    <edge from="4way_49" id="103_4way_49to4way_40" to="4way_40" spreadType="roadCenter" numLanes="1" priority="1"/>
    <edge from="4way_41" id="104_4way_41to4way_42" to="4way_42" spreadType="roadCenter" numLanes="1" priority="1"/>
    <edge from="4way_42" id="104_4way_42to4way_41" to="4way_41" spreadType="roadCenter" numLanes="1" priority="1"/>
    <edge from="4way_41" id="105_4way_41to4way_50" to="4way_50" spreadType="roadCenter" numLanes="1" priority="1"/>
    <edge from="4way_50" id="105_4way_50to4way_41" to="4way_41" spreadType="roadCenter" numLanes="1" priority="1"/>
    <edge from="4way_42" id="106_4way_42to4way_43" to="4way_43" spreadType="roadCenter" numLanes="1" priority="1"/>
    <edge from="4way_43" id="106_4way_43to4way_42" to="4way_42" spreadType="roadCenter" numLanes="1" priority="1"/>
    <edge from="4way_42" id="107_4way_42to4way_51" to="4way_51" spreadType="roadCenter" numLanes="1" priority="1"/>
    <edge from="4way_51" id="107_4way_51to4way_42" to="4way_42" spreadType="roadCenter" numLanes="1" priority="1"/>
    <edge from="4way_43" id="108_4way_43to4way_52" to="4way_52" spreadType="roadCenter" numLanes="1" priority="1"/>
    <edge from="4way_52" id="108_4way_52to4way_43" to="4way_43" spreadType="roadCenter" numLanes="1" priority="1"/>
    <edge from="4way_46" id="109_4way_46to4way_47" to="4way_47" spreadType="roadCenter" numLanes="1" priority="1"/>
    <edge from="4way_47" id="109_4way_47to4way_46" to="4way_46" spreadType="roadCenter" numLanes="1" priority="1"/>
    <edge from="4way_46" id="110_4way_46to4way_55" to="4way_55" spreadType="roadCenter" numLanes="1" priority="1"/>
    <edge from="4way_55" id="110_4way_55to4way_46" to="4way_46" spreadType="roadCenter" numLanes="1" priority="1"/>
    <edge from="4way_47" id="111_4way_47to4way_48" to="4way_48" spreadType="roadCenter" numLanes="1" priority="1"/>
    <edge from="4way_48" id="111_4way_48to4way_47" to="4way_47" spreadType="roadCenter" numLanes="1" priority="1"/>
    <edge from="4way_47" id="112_4way_47to4way_56" to="4way_56" spreadType="roadCenter" numLanes="1" priority="1"/>
    <edge from="4way_56" id="112_4way_56to4way_47" to="4way_47" spreadType="roadCenter" numLanes="1" priority="1"/>
    <edge from="4way_48" id="113_4way_48to4way_49" to="4way_49" spreadType="roadCenter" numLanes="1" priority="1"/>
    <edge from="4way_49" id="113_4way_49to4way_48" to="4way_48" spreadType="roadCenter" numLanes="1" priority="1"/>
    <edge from="4way_48" id="114_4way_48to4way_57" to="4way_57" spreadType="roadCenter" numLanes="1" priority="1"/>
    <edge from="4way_57" id="114_4way_57to4way_48" to="4way_48" spreadType="roadCenter" numLanes="1" priority="1"/>
    <edge from="4way_49" id="115_4way_49to4way_50" to="4way_50" spreadType="roadCenter" numLanes="1" priority="1"/>
    <edge from="4way_50" id="115_4way_50to4way_49" to="4way_49" spreadType="roadCenter" numLanes="1" priority="1"/>
    <edge from="4way_49" id="116_4way_49to4way_58" to="4way_58" spreadType="roadCenter" numLanes="1" priority="1"/>
    <edge from="4way_58" id="116_4way_58to4way_49" to="4way_49" spreadType="roadCenter" numLanes="1" priority="1"/>
    <edge from="4way_50" id="117_4way_50to4way_51" to="4way_51" spreadType="roadCenter" numLanes="1" priority="1"/>
    <edge from="4way_51" id="117_4way_51to4way_50" to="4way_50" spreadType="roadCenter" numLanes="1" priority="1"/>
    <edge from="4way_50" id="118_4way_50to4way_59" to="4way_59" spreadType="roadCenter" numLanes="1" priority="1"/>
    <edge from="4way_59" id="118_4way_59to4way_50" to="4way_50" spreadType="roadCenter" numLanes="1" priority="1"/>
    <edge from="4way_51" id="119_4way_51to4way_52" to="4way_52" spreadType="roadCenter" numLanes="1" priority="1"/>
    <edge from="4way_52" id="119_4way_52to4way_51" to="4way_51" spreadType="roadCenter" numLanes="1" priority="1"/>
    <edge from="4way_51" id="120_4way_51to4way_60" to="4way_60" spreadType="roadCenter" numLanes="1" priority="1"/>
    <edge from="4way_60" id="120_4way_60to4way_51" to="4way_51" spreadType="roadCenter" numLanes="1" priority="1"/>
    <edge from="4way_52" id="121_4way_52to4way_61" to="4way_61" spreadType="roadCenter" numLanes="1" priority="1"/>
    <edge from="4way_61" id="121_4way_61to4way_52" to="4way_52" spreadType="roadCenter" numLanes="1" priority="1"/>
    <edge from="4way_55" id="122_4way_55to4way_56" to="4way_56" spreadType="roadCenter" numLanes="1" priority="1"/>
    <edge from="4way_56" id="122_4way_56to4way_55" to="4way_55" spreadType="roadCenter" numLanes="1" priority="1"/>
    <edge from="4way_55" id="123_4way_55to4way_64" to="4way_64" spreadType="roadCenter" numLanes="1" priority="1"/>
    <edge from="4way_64" id="123_4way_64to4way_55" to="4way_55" spreadType="roadCenter" numLanes="1" priority="1"/>
    <edge from="4way_56" id="124_4way_56to4way_57" to="4way_57" spreadType="roadCenter" numLanes="1" priority="1"/>
    <edge from="4way_57" id="124_4way_57to4way_56" to="4way_56" spreadType="roadCenter" numLanes="1" priority="1"/>
    <edge from="4way_56" id="125_4way_56to4way_65" to="4way_65" spreadType="roadCenter" numLanes="1" priority="1"/>
    <edge from="4way_65" id="125_4way_65to4way_56" to="4way_56" spreadType="roadCenter" numLanes="1" priority="1"/>
    <edge from="4way_57" id="126_4way_57to4way_58" to="4way_58" spreadType="roadCenter" numLanes="1" priority="1"/>
    <edge from="4way_58" id="126_4way_58to4way_57" to="4way_57" spreadType="roadCenter" numLanes="1" priority="1"/>
    <edge from="4way_57" id="127_4way_57to4way_66" to="4way_66" spreadType="roadCenter" numLanes="1" priority="1"/>
    <edge from="4way_66" id="127_4way_66to4way_57" to="4way_57" spreadType="roadCenter" numLanes="1" priority="1"/>
    <edge from="4way_58" id="128_4way_58to4way_59" to="4way_59" spreadType="roadCenter" numLanes="1" priority="1"/>
    <edge from="4way_59" id="128_4way_59to4way_58" to="4way_58" spreadType="roadCenter" numLanes="1" priority="1"/>