<routes xmlns:xsi="http://www.w3.org/2001/XMLSchema-instance" xsi:noNamespaceSchemaLocation="http://sumo.dlr.de/xsd/routes_file.xsd">
<trip id="0" depart="0.0" fromJunction="4way_67" toJunction="4way_12"/>
<trip id="1" depart="0.2469" fromJunction="4way_65" toJunction="4way_48"/>
<trip id="2" depart="0.4938" fromJunction="4way_13" toJunction="4way_46"/>
<trip id="3" depart="0.7407" fromJunction="4way_60" toJunction="4way_55"/>
<trip id="4" depart="0.9876" fromJunction="4way_19" toJunction="4way_52"/>
<trip id="5" depart="1.2345000000000002" fromJunction="4way_56" toJunction="4way_50"/>
<trip id="6" depart="1.4814" fromJunction="4way_25" toJunction="4way_21"/>
<trip id="7" depart="1.7283" fromJunction="3way_7" toJunction="3way_6"/>
<trip id="8" depart="1.9752" fromJunction="4way_24" toJunction="3way_2"/>
<trip id="9" depart="2.2221" fromJunction="4way_42" toJunction="4way_41"/>
<trip id="10" depart="2.4690000000000003" fromJunction="4way_59" toJunction="4way_61"/>
<trip id="11" depart="2.7159" fromJunction="4way_50" toJunction="4way_11"/>
<trip id="12" depart="2.9628" fromJunction="4way_13" toJunction="3way_35"/>
<trip id="13" depart="3.2097" fromJunction="4way_34" toJunction="3way_53"/>
<trip id="14" depart="3.4566" fromJunction="4way_37" toJunction="4way_56"/>
<trip id="15" depart="3.7035" fromJunction="4way_41" toJunction="3way_73"/>
<trip id="16" depart="3.9504" fromJunction="4way_21" toJunction="4way_11"/>
<trip id="17" depart="4.1973" fromJunction="4way_57" toJunction="3way_2"/>
<trip id="18" depart="4.4442" fromJunction="4way_40" toJunction="4way_34"/>
<trip id="19" depart="4.6911000000000005" fromJunction="4way_55" toJunction="3way_9"/>
<trip id="20" depart="4.938000000000001" fromJunction="3way_5" toJunction="4way_49"/>
<trip id="21" depart="5.1849" fromJunction="3way_35" toJunction="3way_77"/>
<trip id="22" depart="5.4318" fromJunction="4way_10" toJunction="3way_36"/>
<trip id="23" depart="5.6787" fromJunction="4way_55" toJunction="4way_21"/>
<trip id="24" depart="5.9256" fromJunction="3way_17" toJunction="4way_70"/>
<trip id="25" depart="6.1725" fromJunction="3way_62" toJunction="3way_77"/>
<trip id="26" depart="6.4194" fromJunction="3way_74" toJunction="4way_22"/>
<trip id="27" depart="6.666300000000001" fromJunction="3way_75" toJunction="4way_11"/>
<trip id="28" depart="6.9132" fromJunction="3way_26" toJunction="3way_62"/>
<trip id="29" depart="7.1601" fromJunction="3way_44" toJunction="4way_22"/>
<trip id="30" depart="7.407" fromJunction="4way_10" toJunction="3way_78"/>
<trip id="31" depart="7.6539" fromJunction="3way_17" toJunction="4way_15"/>
<trip id="32" depart="7.9008" fromJunction="3way_17" toJunction="4way_24"/>
<trip id="33" depart="8.1477" fromJunction="4way_20" toJunction="4way_61"/>
<trip id="34" depart="8.3946" fromJunction="4way_48" toJunction="4way_61"/>
<trip id="35" depart="8.6415" fromJunction="3way_4" toJunction="4way_14"/>
<trip id="36" depart="8.8884" fromJunction="3way_35" toJunction="3way_63"/>
<trip id="37" depart="9.1353" fromJunction="3way_35" toJunction="3way_54"/>
<trip id="38" depart="9.382200000000001" fromJunction="4way_37" toJunction="3way_36"/>
<trip id="39" depart="9.629100000000001" fromJunction="4way_49" toJunction="3way_5"/>
<trip id="40" depart="9.876000000000001" fromJunction="3way_73" toJunction="4way_21"/>
<trip id="41" depart="10.1229" fromJunction="3way_17" toJunction="4way_56"/>
<trip id="42" depart="10.3698" fromJunction="4way_25" toJunction="4way_30"/>
<trip id="43" depart="10.6167" fromJunction="4way_31" toJunction="3way_36"/>
<trip id="44" depart="10.8636" fromJunction="4way_67" toJunction="3way_44"/>
<trip id="45" depart="11.1105" fromJunction="3way_79" toJunction="3way_54"/>
<trip id="46" depart="11.3574" fromJunction="3way_2" toJunction="4way_39"/>
<trip id="47" depart="11.6043" fromJunction="3way_1" toJunction="4way_15"/>
<trip id="48" depart="11.8512" fromJunction="3way_73" toJunction="4way_40"/>
<trip id="49" depart="12.0981" fromJunction="4way_52" toJunction="4way_14"/>
<trip id="50" depart="12.345" fromJunction="4way_30" toJunction="3way_74"/>
<trip id="51" depart="12.5919" fromJunction="4way_30" toJunction="4way_39"/>
<trip id="52" depart="12.8388" fromJunction="4way_43" toJunction="3way_76"/>
<trip id="53" depart="13.085700000000001" fromJunction="4way_33" toJunction="4way_64"/>
<trip id="54" depart="13.332600000000001" fromJunction="3way_54" toJunction="4way_49"/>
<trip id="55" depart="13.579500000000001" fromJunction="4way_28" toJunction="4way_68"/>
<trip id="56" depart="13.8264" fromJunction="4way_30" toJunction="4way_51"/>
<trip id="57" depart="14.0733" fromJunction="4way_49" toJunction="4way_51"/>
<trip id="58" depart="14.3202" fromJunction="4way_38" toJunction="4way_67"/>
<trip id="59" depart="14.5671" fromJunction="4way_13" toJunction="4way_43"/>
<trip id="60" depart="14.814" fromJunction="4way_48" toJunction="4way_46"/>
<trip id="61" depart="15.0609" fromJunction="3way_45" toJunction="3way_2"/>
<trip id="62" depart="15.3078" fromJunction="3way_54" toJunction="4way_22"/>
<trip id="63" depart="15.5547" fromJunction="4way_55" toJunction="4way_57"/>
<trip id="64" depart="15.8016" fromJunction="3way_54" toJunction="3way_44"/>
<trip id="65" depart="16.0485" fromJunction="4way_39" toJunction="4way_21"/>
<trip id="66" depart="16.2954" fromJunction="4way_22" toJunction="4way_30"/>
<trip id="67" depart="16.5423" fromJunction="4way_55" toJunction="4way_22"/>
<trip id="68" depart="16.7892" fromJunction="4way_10" toJunction="4way_69"/>
<trip id="69" depart="17.0361" fromJunction="4way_60" toJunction="4way_55"/>
<trip id="70" depart="17.283" fromJunction="4way_58" toJunction="4way_68"/>
<trip id="71" depart="17.5299" fromJunction="4way_16" toJunction="3way_17"/>
<trip id="72" depart="17.7768" fromJunction="4way_70" toJunction="4way_58"/>
<trip id="73" depart="18.0237" fromJunction="4way_42" toJunction="3way_53"/>
<trip id="74" depart="18.2706" fromJunction="4way_57" toJunction="3way_62"/>
<trip id="75" depart="18.517500000000002" fromJunction="4way_33" toJunction="3way_35"/>
<trip id="76" depart="18.764400000000002" fromJunction="4way_21" toJunction="4way_68"/>
<trip id="77" depart="19.011300000000002" fromJunction="3way_6" toJunction="4way_37"/>
<trip id="78" depart="19.258200000000002" fromJunction="4way_64" toJunction="4way_49"/>
<trip id="79" depart="19.505100000000002" fromJunction="4way_42" toJunction="4way_67"/>
<trip id="80" depart="19.752000000000002" fromJunction="4way_33" toJunction="4way_61"/>
<trip id="81" depart="19.9989" fromJunction="3way_9" toJunction="3way_1"/>
<trip id="82" depart="20.2458" fromJunction="3way_71" toJunction="4way_14"/>
<trip id="83" depart="20.4927" fromJunction="3way_5" toJunction="4way_56"/>
<trip id="84" depart="20.7396" fromJunction="3way_2" toJunction="3way_78"/>
<trip id="85" depart="20.9865" fromJunction="3way_76" toJunction="4way_59"/>
<trip id="86" depart="21.2334" fromJunction="4way_25" toJunction="3way_18"/>
<trip id="87" depart="21.4803" fromJunction="3way_3" toJunction="4way_58"/>
<trip id="88" depart="21.7272" fromJunction="4way_57" toJunction="3way_62"/>
<trip id="89" depart="21.9741" fromJunction="3way_75" toJunction="4way_30"/>
<trip id="90" depart="22.221" fromJunction="4way_57" toJunction="4way_25"/>
<trip id="91" depart="22.4679" fromJunction="4way_39" toJunction="4way_65"/>
<trip id="92" depart="22.7148" fromJunction="3way_36" toJunction="4way_14"/>
<trip id="93" depart="22.9617" fromJunction="3way_77" toJunction="4way_28"/>
<trip id="94" depart="23.2086" fromJunction="4way_34" toJunction="3way_79"/>
<trip id="95" depart="23.4555" fromJunction="4way_29" toJunction="4way_14"/>
<trip id="96" depart="23.7024" fromJunction="3way_74" toJunction="3way_76"/>
<trip id="97" depart="23.9493" fromJunction="4way_55" toJunction="3way_5"/>
<trip id="98" depart="24.1962" fromJunction="4way_49" toJunction="3way_36"/>
<trip id="99" depart="24.4431" fromJunction="3way_71" toJunction="4way_19"/>
<trip id="100" depart="24.69" fromJunction="3way_6" toJunction="3way_2"/>
<trip id="101" depart="24.9369" fromJunction="4way_64" toJunction="4way_40"/>
<trip id="102" depart="25.1838" fromJunction="4way_69" toJunction="4way_65"/>
<trip id="103" depart="25.4307" fromJunction="3way_77" toJunction="4way_70"/>
<trip id="104" depart="25.6776" fromJunction="3way_73" toJunction="4way_31"/>
<trip id="105" depart="25.924500000000002" fromJunction="4way_32" toJunction="3way_2"/>
<trip id="106" depart="26.171400000000002" fromJunction="4way_19" toJunction="3way_36"/>
<trip id="107" depart="26.418300000000002" fromJunction="4way_15" toJunction="4way_39"/>
<trip id="108" depart="26.665200000000002" fromJunction="4way_51" toJunction="4way_66"/>
<trip id="109" depart="26.912100000000002" fromJunction="4way_59" toJunction="3way_63"/>
<trip id="110" depart="27.159000000000002" fromJunction="4way_43" toJunction="3way_79"/>
<trip id="111" depart="27.405900000000003" fromJunction="3way_77" toJunction="4way_40"/>
<trip id="112" depart="27.6528" fromJunction="4way_14" toJunction="4way_34"/>
<trip id="113" depart="27.8997" fromJunction="3way_77" toJunction="3way_74"/>
<trip id="114" depart="28.1466" fromJunction="3way_2" toJunction="4way_47"/>
<trip id="115" depart="28.3935" fromJunction="4way_46" toJunction="3way_78"/>
<trip id="116" depart="28.6404" fromJunction="4way_11" toJunction="4way_10"/>
<trip id="117" depart="28.8873" fromJunction="4way_39" toJunction="3way_63"/>
<trip id="118" depart="29.1342" fromJunction="3way_35" toJunction="4way_42"/>
<trip id="119" depart="29.3811" fromJunction="3way_44" toJunction="4way_47"/>
<trip id="120" depart="29.628" fromJunction="4way_28" toJunction="4way_67"/>
<trip id="121" depart="29.8749" fromJunction="3way_79" toJunction="4way_21"/>
<trip id="122" depart="30.1218" fromJunction="4way_29" toJunction="3way_53"/>
<trip id="123" depart="30.3687" fromJunction="4way_34" toJunction="3way_9"/>
<trip id="124" depart="30.6156" fromJunction="4way_23" toJunction="4way_32"/>
<trip id="125" depart="30.8625" fromJunction="3way_7" toJunction="4way_69"/>
<trip id="126" depart="31.1094" fromJunction="4way_39" toJunction="4way_12"/>
<trip id="127" depart="31.3563" fromJunction="3way_54" toJunction="4way_52"/>
<trip id="128" depart="31.6032" fromJunction="3way_17" toJunction="3way_75"/>
<trip id="129" depart="31.8501" fromJunction="4way_25" toJunction="3way_2"/>
<trip id="130" depart="32.097" fromJunction="4way_50" toJunction="4way_31"/>
<trip id="131" depart="32.3439" fromJunction="4way_39" toJunction="3way_63"/>
<trip id="132" depart="32.5908" fromJunction="4way_29" toJunction="3way_5"/>
<trip id="133" depart="32.8377" fromJunction="4way_51" toJunction="4way_61"/>
<trip id="134" depart="33.0846" fromJunction="4way_52" toJunction="3way_18"/>
<trip id="135" depart="33.3315" fromJunction="4way_43" toJunction="3way_76"/>
<trip id="136" depart="33.5784" fromJunction="4way_59" toJunction="4way_34"/>
<trip id="137" depart="33.8253" fromJunction="4way_51" toJunction="4way_66"/>
<trip id="138" depart="34.0722" fromJunction="4way_33" toJunction="3way_54"/>
<trip id="139" depart="34.3191" fromJunction="3way_2" toJunction="4way_57"/>
<trip id="140" depart="34.566" fromJunction="3way_53" toJunction="3way_18"/>
<trip id="141" depart="34.8129" fromJunction="4way_20" toJunction="4way_61"/>
<trip id="142" depart="35.0598" fromJunction="4way_13" toJunction="4way_38"/>
<trip id="143" depart="35.3067" fromJunction="3way_44" toJunction="4way_10"/>
<trip id="144" depart="35.5536" fromJunction="3way_79" toJunction="4way_15"/>
<trip id="145" depart="35.8005" fromJunction="3way_76" toJunction="4way_47"/>
<trip id="146" depart="36.0474" fromJunction="4way_42" toJunction="3way_17"/>
<trip id="147" depart="36.2943" fromJunction="4way_43" toJunction="4way_52"/>
<trip id="148" depart="36.5412" fromJunction="4way_41" toJunction="4way_69"/>
<trip id="149" depart="36.7881" fromJunction="3way_7" toJunction="3way_27"/>
<trip id="150" depart="37.035000000000004" fromJunction="3way_76" toJunction="4way_37"/>
<trip id="151" depart="37.2819" fromJunction="3way_5" toJunction="3way_44"/>
<trip id="152" depart="37.528800000000004" fromJunction="3way_1" toJunction="4way_67"/>
<trip id="153" depart="37.7757" fromJunction="3way_53" toJunction="4way_41"/>
<trip id="154" depart="38.022600000000004" fromJunction="3way_75" toJunction="4way_31"/>
<trip id="155" depart="38.2695" fromJunction="4way_12" toJunction="4way_46"/>
<trip id="156" depart="38.516400000000004" fromJunction="4way_67" toJunction="4way_42"/>
<trip id="157" depart="38.7633" fromJunction="3way_44" toJunction="3way_73"/>
<trip id="158" depart="39.010200000000005" fromJunction="3way_45" toJunction="3way_5"/>
<trip id="159" depart="39.2571" fromJunction="4way_11" toJunction="3way_73"/>
<trip id="160" depart="39.504000000000005" fromJunction="4way_49" toJunction="4way_40"/>
<trip id="161" depart="39.7509" fromJunction="4way_19" toJunction="3way_63"/>
<trip id="162" depart="39.9978" fromJunction="4way_50" toJunction="3way_71"/>
<trip id="163" depart="40.2447" fromJunction="4way_49" toJunction="3way_5"/>
<trip id="164" depart="40.4916" fromJunction="4way_10" toJunction="3way_74"/>
<trip id="165" depart="40.7385" fromJunction="3way_63" toJunction="4way_39"/>
<trip id="166" depart="40.9854" fromJunction="3way_78" toJunction="4way_10"/>
<trip id="167" depart="41.2323" fromJunction="3way_4" toJunction="4way_11"/>
<trip id="168" depart="41.4792" fromJunction="3way_6" toJunction="4way_59"/>
<trip id="169" depart="41.7261" fromJunction="3way_45" toJunction="4way_47"/>
<trip id="170" depart="41.973" fromJunction="4way_43" toJunction="4way_30"/>
<trip id="171" depart="42.2199" fromJunction="3way_3" toJunction="4way_13"/>
<trip id="172" depart="42.4668" fromJunction="4way_47" toJunction="4way_55"/>
<trip id="173" depart="42.7137" fromJunction="4way_40" toJunction="4way_65"/>
<trip id="174" depart="42.9606" fromJunction="3way_35" toJunction="3way_63"/>
<trip id="175" depart="43.2075" fromJunction="4way_43" toJunction="4way_28"/>
<trip id="176" depart="43.4544" fromJunction="4way_69" toJunction="3way_79"/>
<trip id="177" depart="43.7013" fromJunction="4way_11" toJunction="4way_65"/>
<trip id="178" depart="43.9482" fromJunction="4way_11" toJunction="4way_51"/>
<trip id="179" depart="44.195100000000004" fromJunction="4way_28" toJunction="4way_67"/>
<trip id="180" depart="44.442" fromJunction="4way_49" toJunction="4way_69"/>
<trip id="181" depart="44.688900000000004" fromJunction="3way_27" toJunction="4way_49"/>
<trip id="182" depart="44.9358" fromJunction="4way_66" toJunction="4way_32"/>
<trip id="183" depart="45.182700000000004" fromJunction="3way_62" toJunction="3way_75"/>
<trip id="184" depart="45.4296" fromJunction="4way_43" toJunction="4way_59"/>
<trip id="185" depart="45.676500000000004" fromJunction="4way_39" toJunction="4way_11"/>
<trip id="186" depart="45.9234" fromJunction="4way_11" toJunction="4way_42"/>
<trip id="187" depart="46.170300000000005" fromJunction="4way_30" toJunction="4way_43"/>
<trip id="188" depart="46.4172" fromJunction="4way_69" toJunction="4way_15"/>
<trip id="189" depart="46.664100000000005" fromJunction="3way_62" toJunction="4way_68"/>
<trip id="190" depart="46.911" fromJunction="4way_28" toJunction="4way_66"/>
<trip id="191" depart="47.157900000000005" fromJunction="4way_46" toJunction="3way_5"/>
<trip id="192" depart="47.4048" fromJunction="4way_33" toJunction="3way_74"/>
<trip id="193" depart="47.6517" fromJunction="4way_43" toJunction="3way_3"/>
<trip id="194" depart="47.8986" fromJunction="3way_79" toJunction="3way_2"/>
<trip id="195" depart="48.1455" fromJunction="4way_25" toJunction="4way_28"/>
<trip id="196" depart="48.3924" fromJunction="4way_34" toJunction="3way_17"/>
<trip id="197" depart="48.6393" fromJunction="4way_64" toJunction="4way_42"/>
<trip id="198" depart="48.8862" fromJunction="3way_76" toJunction="3way_27"/>
<trip id="199" depart="49.1331" fromJunction="3way_3" toJunction="4way_57"/>
<trip id="200" depart="49.38" fromJunction="4way_55" toJunction="3way_2"/>
<trip id="201" depart="49.6269" fromJunction="3way_74" toJunction="3way_6"/>
<trip id="202" depart="49.8738" fromJunction="3way_74" toJunction="3way_76"/>
<trip id="203" depart="50.1207" fromJunction="3way_1" toJunction="3way_44"/>
<trip id="204" depart="50.3676" fromJunction="4way_57" toJunction="3way_26"/>
<trip id="205" depart="50.6145" fromJunction="4way_70" toJunction="4way_61"/>
<trip id="206" depart="50.8614" fromJunction="3way_62" toJunction="4way_37"/>
<trip id="207" depart="51.1083" fromJunction="4way_29" toJunction="4way_13"/>
<trip id="208" depart="51.3552" fromJunction="3way_6" toJunction="4way_70"/>
<trip id="209" depart="51.6021" fromJunction="3way_54" toJunction="4way_50"/>
<trip id="210" depart="51.849000000000004" fromJunction="4way_31" toJunction="3way_75"/>
<trip id="211" depart="52.0959" fromJunction="4way_31" toJunction="3way_75"/>
<trip id="212" depart="52.342800000000004" fromJunction="4way_46" toJunction="4way_47"/>
<trip id="213" depart="52.5897" fromJunction="3way_54" toJunction="4way_12"/>
<trip id="214" depart="52.836600000000004" fromJunction="4way_37" toJunction="4way_58"/>
<trip id="215" depart="53.0835" fromJunction="4way_15" toJunction="3way_9"/>
<trip id="216" depart="53.330400000000004" fromJunction="3way_4" toJunction="4way_25"/>
<trip id="217" depart="53.5773" fromJunction="3way_18" toJunction="3way_76"/>
<trip id="218" depart="53.824200000000005" fromJunction="4way_61" toJunction="4way_68"/>
<trip id="219" depart="54.0711" fromJunction="4way_69" toJunction="4way_52"/>
<trip id="220" depart="54.318000000000005" fromJunction="4way_70" toJunction="3way_54"/>
<trip id="221" depart="54.5649" fromJunction="3way_26" toJunction="3way_74"/>
<trip id="222" depart="54.811800000000005" fromJunction="3way_76" toJunction="4way_43"/>
<trip id="223" depart="55.0587" fromJunction="3way_5" toJunction="4way_49"/>
<trip id="224" depart="55.3056" fromJunction="4way_51" toJunction="4way_14"/>
<trip id="225" depart="55.5525" fromJunction="4way_19" toJunction="3way_73"/>
<trip id="226" depart="55.7994" fromJunction="4way_23" toJunction="4way_10"/>
<trip id="227" depart="56.0463" fromJunction="3way_71" toJunction="3way_75"/>
<trip id="228" depart="56.2932" fromJunction="3way_45" toJunction="4way_64"/>
<trip id="229" depart="56.5401" fromJunction="3way_75" toJunction="4way_24"/>
<trip id="230" depart="56.787" fromJunction="4way_34" toJunction="4way_38"/>
<trip id="231" depart="57.0339" fromJunction="4way_42" toJunction="4way_66"/>
<trip id="232" depart="57.2808" fromJunction="4way_23" toJunction="4way_34"/>
<trip id="233" depart="57.5277" fromJunction="4way_52" toJunction="4way_49"/>
<trip id="234" depart="57.7746" fromJunction="4way_64" toJunction="4way_70"/>
<trip id="235" depart="58.0215" fromJunction="3way_54" toJunction="3way_6"/>
<trip id="236" depart="58.2684" fromJunction="4way_46" toJunction="3way_53"/>
<trip id="237" depart="58.5153" fromJunction="4way_48" toJunction="3way_44"/>
<trip id="238" depart="58.7622" fromJunction="4way_60" toJunction="4way_19"/>
<trip id="239" depart="59.009100000000004" fromJunction="4way_12" toJunction="4way_52"/>
<trip id="240" depart="59.256" fromJunction="4way_39" toJunction="3way_63"/>
<trip id="241" depart="59.502900000000004" fromJunction="4way_37" toJunction="4way_69"/>
<trip id="242" depart="59.7498" fromJunction="3way_73" toJunction="4way_12"/>
<trip id="243" depart="59.996700000000004" fromJunction="4way_28" toJunction="4way_11"/>
<trip id="244" depart="60.2436" fromJunction="4way_38" toJunction="3way_74"/>
<trip id="245" depart="60.490500000000004" fromJunction="4way_10" toJunction="3way_45"/>
<trip id="246" depart="60.7374" fromJunction="4way_23" toJunction="4way_56"/>
<trip id="247" depart="60.984300000000005" fromJunction="4way_25" toJunction="3way_27"/>
<trip id="248" depart="61.2312" fromJunction="3way_4" toJunction="4way_42"/>
<trip id="249" depart="61.478100000000005" fromJunction="4way_64" toJunction="3way_74"/>
<trip id="250" depart="61.725" fromJunction="3way_18" toJunction="3way_26"/>
<trip id="251" depart="61.971900000000005" fromJunction="4way_40" toJunction="4way_14"/>
<trip id="252" depart="62.2188" fromJunction="4way_58" toJunction="4way_57"/>
<trip id="253" depart="62.465700000000005" fromJunction="3way_18" toJunction="3way_78"/>
<trip id="254" depart="62.7126" fromJunction="4way_51" toJunction="4way_40"/>
<trip id="255" depart="62.959500000000006" fromJunction="3way_63" toJunction="4way_65"/>
<trip id="256" depart="63.2064" fromJunction="4way_58" toJunction="3way_3"/>
<trip id="257" depart="63.4533" fromJunction="4way_10" toJunction="3way_1"/>
<trip id="258" depart="63.7002" fromJunction="4way_25" toJunction="4way_56"/>
<trip id="259" depart="63.9471" fromJunction="4way_37" toJunction="3way_7"/>
<trip id="260" depart="64.194" fromJunction="3way_18" toJunction="3way_2"/>
<trip id="261" depart="64.4409" fromJunction="3way_63" toJunction="4way_57"/>
<trip id="262" depart="64.6878" fromJunction="3way_26" toJunction="3way_77"/>
<trip id="263" depart="64.9347" fromJunction="4way_49" toJunction="4way_30"/>
<trip id="264" depart="65.1816" fromJunction="4way_43" toJunction="4way_31"/>
<trip id="265" depart="65.4285" fromJunction="4way_13" toJunction="3way_1"/>
<trip id="266" depart="65.6754" fromJunction="4way_39" toJunction="4way_48"/>
<trip id="267" depart="65.9223" fromJunction="3way_2" toJunction="4way_52"/>
<trip id="268" depart="66.1692" fromJunction="4way_68" toJunction="4way_49"/>
<trip id="269" depart="66.4161" fromJunction="3way_27" toJunction="4way_47"/>
<trip id="270" depart="66.663" fromJunction="3way_17" toJunction="4way_50"/>
<trip id="271" depart="66.90990000000001" fromJunction="4way_56" toJunction="4way_64"/>
<trip id="272" depart="67.1568" fromJunction="3way_7" toJunction="4way_49"/>
<trip id="273" depart="67.4037" fromJunction="4way_37" toJunction="3way_76"/>
<trip id="274" depart="67.6506" fromJunction="4way_60" toJunction="4way_57"/>
<trip id="275" depart="67.89750000000001" fromJunction="3way_44" toJunction="4way_57"/>
<trip id="276" depart="68.1444" fromJunction="4way_51" toJunction="4way_61"/>
<trip id="277" depart="68.3913" fromJunction="4way_25" toJunction="4way_38"/>
<trip id="278" depart="68.6382" fromJunction="4way_25" toJunction="4way_65"/>
<trip id="279" depart="68.88510000000001" fromJunction="4way_52" toJunction="4way_15"/>
<trip id="280" depart="69.132" fromJunction="3way_3" toJunction="4way_16"/>
<trip id="281" depart="69.3789" fromJunction="4way_19" toJunction="3way_71"/>
<trip id="282" depart="69.6258" fromJunction="3way_45" toJunction="4way_43"/>
<trip id="283" depart="69.87270000000001" fromJunction="4way_60" toJunction="3way_62"/>
<trip id="284" depart="70.1196" fromJunction="4way_69" toJunction="4way_64"/>
<trip id="285" depart="70.3665" fromJunction="4way_22" toJunction="3way_62"/>
<trip id="286" depart="70.6134" fromJunction="3way_6" toJunction="4way_55"/>
<trip id="287" depart="70.86030000000001" fromJunction="3way_74" toJunction="4way_49"/>
<trip id="288" depart="71.1072" fromJunction="3way_5" toJunction="3way_4"/>
<trip id="289" depart="71.3541" fromJunction="4way_69" toJunction="3way_5"/>
<trip id="290" depart="71.601" fromJunction="4way_69" toJunction="4way_14"/>
<trip id="291" depart="71.8479" fromJunction="4way_56" toJunction="4way_31"/>
<trip id="292" depart="72.0948" fromJunction="4way_70" toJunction="3way_45"/>
<trip id="293" depart="72.3417" fromJunction="4way_20" toJunction="3way_9"/>
<trip id="294" depart="72.5886" fromJunction="4way_61" toJunction="4way_19"/>
<trip id="295" depart="72.8355" fromJunction="3way_27" toJunction="3way_71"/>
<trip id="296" depart="73.0824" fromJunction="3way_5" toJunction="4way_40"/>
<trip id="297" depart="73.3293" fromJunction="4way_20" toJunction="4way_48"/>
<trip id="298" depart="73.5762" fromJunction="3way_75" toJunction="3way_63"/>
<trip id="299" depart="73.8231" fromJunction="4way_10" toJunction="4way_47"/>
<trip id="300" depart="74.07000000000001" fromJunction="3way_27" toJunction="4way_11"/>
<trip id="301" depart="74.3169" fromJunction="3way_44" toJunction="4way_52"/>
<trip id="302" depart="74.5638" fromJunction="3way_18" toJunction="3way_17"/>
<trip id="303" depart="74.8107" fromJunction="4way_22" toJunction="4way_39"/>
<trip id="304" depart="75.05760000000001" fromJunction="4way_70" toJunction="4way_28"/>
<trip id="305" depart="75.3045" fromJunction="4way_67" toJunction="3way_9"/>
<trip id="306" depart="75.5514" fromJunction="4way_68" toJunction="4way_13"/>
<trip id="307" depart="75.7983" fromJunction="4way_60" toJunction="4way_61"/>
<trip id="308" depart="76.04520000000001" fromJunction="4way_49" toJunction="4way_32"/>
<trip id="309" depart="76.2921" fromJunction="3way_53" toJunction="3way_27"/>
<trip id="310" depart="76.539" fromJunction="3way_75" toJunction="3way_5"/>
<trip id="311" depart="76.7859" fromJunction="4way_56" toJunction="4way_55"/>
<trip id="312" depart="77.03280000000001" fromJunction="4way_43" toJunction="4way_41"/>
<trip id="313" depart="77.2797" fromJunction="3way_26" toJunction="3way_35"/>
<trip id="314" depart="77.5266" fromJunction="4way_23" toJunction="4way_39"/>
<trip id="315" depart="77.7735" fromJunction="4way_34" toJunction="4way_33"/>
<trip id="316" depart="78.02040000000001" fromJunction="4way_28" toJunction="4way_61"/>
<trip id="317" depart="78.2673" fromJunction="3way_53" toJunction="4way_19"/>
<trip id="318" depart="78.5142" fromJunction="4way_22" toJunction="4way_40"/>
<trip id="319" depart="78.7611" fromJunction="3way_17" toJunction="4way_42"/>
<trip id="320" depart="79.00800000000001" fromJunction="4way_30" toJunction="4way_38"/>
<trip id="321" depart="79.2549" fromJunction="3way_71" toJunction="3way_75"/>
<trip id="322" depart="79.5018" fromJunction="3way_5" toJunction="4way_42"/>
<trip id="323" depart="79.7487" fromJunction="3way_26" toJunction="4way_20"/>
<trip id="324" depart="79.9956" fromJunction="4way_61" toJunction="4way_11"/>
<trip id="325" depart="80.2425" fromJunction="4way_33" toJunction="4way_46"/>
<trip id="326" depart="80.4894" fromJunction="3way_73" toJunction="3way_35"/>
<trip id="327" depart="80.7363" fromJunction="4way_28" toJunction="4way_37"/>
<trip id="328" depart="80.9832" fromJunction="3way_18" toJunction="4way_31"/>
<trip id="329" depart="81.23010000000001" fromJunction="4way_13" toJunction="4way_58"/>
<trip id="330" depart="81.477" fromJunction="4way_55" toJunction="4way_28"/>
<trip id="331" depart="81.7239" fromJunction="3way_6" toJunction="4way_57"/>
<trip id="332" depart="81.9708" fromJunction="4way_22" toJunction="4way_15"/>
<trip id="333" depart="82.21770000000001" fromJunction="4way_65" toJunction="4way_67"/>
<trip id="334" depart="82.4646" fromJunction="4way_37" toJunction="3way_26"/>
<trip id="335" depart="82.7115" fromJunction="3way_36" toJunction="4way_37"/>
<trip id="336" depart="82.9584" fromJunction="4way_14" toJunction="3way_3"/>
<trip id="337" depart="83.20530000000001" fromJunction="4way_48" toJunction="3way_26"/>
<trip id="338" depart="83.4522" fromJunction="4way_66" toJunction="4way_58"/>
<trip id="339" depart="83.6991" fromJunction="3way_17" toJunction="4way_43"/>
<trip id="340" depart="83.946" fromJunction="3way_3" toJunction="4way_42"/>
<trip id="341" depart="84.19290000000001" fromJunction="4way_37" toJunction="4way_65"/>
<trip id="342" depart="84.4398" fromJunction="4way_10" toJunction="4way_56"/>
<trip id="343" depart="84.6867" fromJunction="3way_2" toJunction="3way_79"/>
<trip id="344" depart="84.9336" fromJunction="4way_24" toJunction="4way_47"/>
<trip id="345" depart="85.18050000000001" fromJunction="3way_76" toJunction="4way_10"/>
<trip id="346" depart="85.4274" fromJunction="3way_17" toJunction="3way_76"/>
<trip id="347" depart="85.6743" fromJunction="3way_6" toJunction="3way_73"/>
<trip id="348" depart="85.9212" fromJunction="4way_33" toJunction="3way_6"/>
<trip id="349" depart="86.16810000000001" fromJunction="4way_21" toJunction="3way_62"/>
<trip id="350" depart="86.415" fromJunction="4way_11" toJunction="4way_41"/>
<trip id="351" depart="86.6619" fromJunction="3way_78" toJunction="3way_53"/>
<trip id="352" depart="86.9088" fromJunction="4way_56" toJunction="4way_55"/>
<trip id="353" depart="87.1557" fromJunction="4way_50" toJunction="3way_18"/>
<trip id="354" depart="87.4026" fromJunction="4way_25" toJunction="4way_23"/>
<trip id="355" depart="87.6495" fromJunction="4way_60" toJunction="3way_3"/>
<trip id="356" depart="87.8964" fromJunction="4way_51" toJunction="4way_28"/>
<trip id="357" depart="88.1433" fromJunction="4way_70" toJunction="4way_49"/>
<trip id="358" depart="88.39020000000001" fromJunction="4way_10" toJunction="4way_32"/>
<trip id="359" depart="88.6371" fromJunction="4way_10" toJunction="4way_38"/>
<trip id="360" depart="88.884" fromJunction="3way_73" toJunction="4way_10"/>
<trip id="361" depart="89.1309" fromJunction="4way_40" toJunction="4way_38"/>
<trip id="362" depart="89.37780000000001" fromJunction="4way_56" toJunction="3way_63"/>
<trip id="363" depart="89.6247" fromJunction="3way_62" toJunction="3way_35"/>
<trip id="364" depart="89.8716" fromJunction="4way_52" toJunction="3way_4"/>
<trip id="365" depart="90.1185" fromJunction="3way_71" toJunction="3way_1"/>
<trip id="366" depart="90.36540000000001" fromJunction="3way_7" toJunction="4way_57"/>
<trip id="367" depart="90.6123" fromJunction="4way_67" toJunction="4way_51"/>
<trip id="368" depart="90.8592" fromJunction="4way_47" toJunction="4way_52"/>
<trip id="369" depart="91.1061" fromJunction="4way_12" toJunction="3way_45"/>
<trip id="370" depart="91.35300000000001" fromJunction="4way_56" toJunction="4way_25"/>
<trip id="371" depart="91.5999" fromJunction="4way_51" toJunction="3way_73"/>
<trip id="372" depart="91.8468" fromJunction="3way_1" toJunction="4way_10"/>
<trip id="373" depart="92.0937" fromJunction="3way_36" toJunction="3way_74"/>
<trip id="374" depart="92.34060000000001" fromJunction="4way_11" toJunction="4way_42"/>