<?xml version="1.0" encoding="UTF-8"?>

<!-- generated on 2023-07-28 04:24:26 by Eclipse SUMO duarouter Version 1.12.0
<configuration xmlns:xsi="http://www.w3.org/2001/XMLSchema-instance" xsi:noNamespaceSchemaLocation="http://sumo.dlr.de/xsd/duarouterConfiguration.xsd">

    <input>
        <net-file value="sq.net.xml"/>
        <route-files value="sq.trips.xml"/>
        <junction-taz value="true"/>
    </input>

    <output>
        <output-file value="sq.rou.xml"/>
        <alternatives-output value="sq.rou.alt.xml"/>
    </output>

    <processing>
        <weights.random-factor value="1.2"/>
    </processing>

    <time>
        <begin value="0"/>
        <end value="7200"/>
    </time>

    <report>
        <verbose value="true"/>
    </report>

    <random_number>
        <seed value="5"/>
    </random_number>

</configuration>
-->

<routes xmlns:xsi="http://www.w3.org/2001/XMLSchema-instance" xsi:noNamespaceSchemaLocation="http://sumo.dlr.de/xsd/routes_file.xsd">
    <vehicle id="0" depart="0.00">
        <route edges="39_4way_20to4way_14 35_4way_14to4way_13"/>
    </vehicle>
    <vehicle id="1" depart="0.51">
        <route edges="36_4way_13to4way_19 46_4way_19to4way_25"/>
    </vehicle>
    <vehicle id="2" depart="1.03">
        <route edges="55_4way_8to4way_7 32_4way_7to3way_6 8_3way_6to3way_12 7_3way_12to3way_18"/>
    </vehicle>
    <vehicle id="3" depart="1.54">
        <route edges="34_4way_10to4way_9 56_4way_9to4way_8 55_4way_8to4way_7 32_4way_7to3way_6 8_3way_6to3way_12"/>
    </vehicle>
    <vehicle id="4" depart="2.05">
        <route edges="19_3way_24to4way_25 52_4way_25to4way_26 53_4way_26to4way_27 54_4way_27to4way_28 51_4way_28to4way_22"/>
    </vehicle>
    <vehicle id="5" depart="2.56">
        <route edges="37_4way_7to4way_13 35_4way_13to4way_14 38_4way_14to4way_15"/>
    </vehicle>
    <vehicle id="6" depart="3.08">
        <route edges="41_4way_16to4way_15 38_4way_15to4way_14 35_4way_14to4way_13 36_4way_13to4way_19"/>
    </vehicle>
    <vehicle id="7" depart="3.59">
        <route edges="42_4way_21to4way_15 43_4way_15to4way_9 23_4way_9to3way_3 14_3way_3to3way_2 1_3way_2to3way_1"/>
    </vehicle>
    <vehicle id="8" depart="4.10">
        <route edges="50_4way_27to4way_21 42_4way_21to4way_15 43_4way_15to4way_9"/>
    </vehicle>
    <vehicle id="9" depart="4.62">
        <route edges="42_4way_15to4way_21 50_4way_21to4way_27 54_4way_27to4way_28"/>
    </vehicle>
    <vehicle id="10" depart="5.13">
        <route edges="56_4way_9to4way_8 55_4way_8to4way_7 32_4way_7to3way_6 8_3way_6to3way_12"/>
    </vehicle>
    <vehicle id="11" depart="5.64">
        <route edges="56_4way_8to4way_9 34_4way_9to4way_10 31_4way_10to3way_4"/>
    </vehicle>
    <vehicle id="12" depart="6.15">
        <route edges="17_4way_22to3way_23 10_3way_23to3way_17 4_3way_17to3way_11"/>
    </vehicle>
    <vehicle id="13" depart="6.67">
        <route edges="13_3way_18to4way_19 36_4way_19to4way_13 37_4way_13to4way_7"/>
    </vehicle>
    <vehicle id="14" depart="7.18">
        <route edges="43_4way_9to4way_15 42_4way_15to4way_21 50_4way_21to4way_27 29_4way_27to3way_33 28_3way_33to3way_34"/>
    </vehicle>
    <vehicle id="15" depart="7.69">
        <route edges="13_4way_19to3way_18 7_3way_18to3way_12"/>
    </vehicle>
    <vehicle id="16" depart="8.21">
        <route edges="46_4way_25to4way_19 36_4way_19to4way_13 37_4way_13to4way_7 3_4way_7to3way_1"/>
    </vehicle>
    <vehicle id="17" depart="8.72">
        <route edges="38_4way_14to4way_15 41_4way_15to4way_16 44_4way_16to4way_22"/>
    </vehicle>
    <vehicle id="18" depart="9.23">
        <route edges="12_3way_18to3way_24 18_3way_24to3way_31"/>
    </vehicle>
    <vehicle id="19" depart="9.74">
        <route edges="15_3way_2to4way_8 40_4way_8to4way_14 39_4way_14to4way_20"/>
    </vehicle>
    <vehicle id="20" depart="10.26">
        <route edges="4_3way_11to3way_17 10_3way_17to3way_23"/>
    </vehicle>
    <vehicle id="21" depart="10.77">
        <route edges="24_3way_31to3way_32"/>
    </vehicle>
    <vehicle id="22" depart="11.28">
        <route edges="7_3way_12to3way_18 13_3way_18to4way_19"/>
    </vehicle>
    <vehicle id="23" depart="11.79">
        <route edges="31_3way_4to4way_10 33_4way_10to4way_16 44_4way_16to4way_22 51_4way_22to4way_28"/>
    </vehicle>
    <vehicle id="24" depart="12.31">
        <route edges="10_3way_17to3way_23"/>
    </vehicle>
    <vehicle id="25" depart="12.82">
        <route edges="30_3way_34to4way_28 51_4way_28to4way_22 44_4way_22to4way_16 33_4way_16to4way_10 34_4way_10to4way_9 56_4way_9to4way_8"/>
    </vehicle>
    <vehicle id="26" depart="13.33">
        <route edges="16_3way_29to3way_23 17_3way_23to4way_22 49_4way_22to4way_21 47_4way_21to4way_20 45_4way_20to4way_19 13_4way_19to3way_18 7_3way_18to3way_12"/>
    </vehicle>
    <vehicle id="27" depart="13.85">
        <route edges="31_3way_4to4way_10 33_4way_10to4way_16 11_4way_16to3way_17"/>
    </vehicle>
    <vehicle id="28" depart="14.36">
        <route edges="6_3way_11to4way_10 34_4way_10to4way_9 56_4way_9to4way_8 40_4way_8to4way_14"/>
    </vehicle>
    <vehicle id="29" depart="14.87">
        <route edges="24_3way_31to3way_32 26_3way_32to3way_33 28_3way_33to3way_34 20_3way_34to3way_29 16_3way_29to3way_23"/>
    </vehicle>
    <vehicle id="30" depart="15.38">
        <route edges="22_3way_4to3way_3 23_3way_3to4way_9 43_4way_9to4way_15 42_4way_15to4way_21"/>
    </vehicle>
    <vehicle id="31" depart="15.90">
        <route edges="22_3way_4to3way_3 23_3way_3to4way_9 43_4way_9to4way_15 42_4way_15to4way_21"/>
    </vehicle>
    <vehicle id="32" depart="16.41">
        <route edges="7_3way_12to3way_18 12_3way_18to3way_24 19_3way_24to4way_25 52_4way_25to4way_26 53_4way_26to4way_27 54_4way_27to4way_28"/>
    </vehicle>
    <vehicle id="33" depart="16.92">
        <route edges="52_4way_25to4way_26 53_4way_26to4way_27 54_4way_27to4way_28"/>
    </vehicle>
    <vehicle id="34" depart="17.44">
        <route edges="15_3way_2to4way_8 40_4way_8to4way_14 39_4way_14to4way_20 48_4way_20to4way_26"/>
    </vehicle>
    <vehicle id="35" depart="17.95">
        <route edges="22_3way_4to3way_3 23_3way_3to4way_9 43_4way_9to4way_15 42_4way_15to4way_21 50_4way_21to4way_27 29_4way_27to3way_33"/>
    </vehicle>
    <vehicle id="36" depart="18.46">
        <route edges="31_3way_4to4way_10 33_4way_10to4way_16 44_4way_16to4way_22 51_4way_22to4way_28 30_4way_28to3way_34 28_3way_34to3way_33"/>
    </vehicle>
    <vehicle id="37" depart="18.97">
        <route edges="12_3way_18to3way_24 18_3way_24to3way_31 24_3way_31to3way_32"/>
    </vehicle>
    <vehicle id="38" depart="19.49">
        <route edges="39_4way_20to4way_14 40_4way_14to4way_8 15_4way_8to3way_2 14_3way_2to3way_3"/>
    </vehicle>
    <vehicle id="39" depart="20.00">
        <route edges="30_3way_34to4way_28 51_4way_28to4way_22 49_4way_22to4way_21 47_4way_21to4way_20 45_4way_20to4way_19"/>
    </vehicle>
    <vehicle id="40" depart="20.51">
        <route edges="31_3way_4to4way_10 34_4way_10to4way_9 56_4way_9to4way_8 55_4way_8to4way_7"/>
    </vehicle>
    <vehicle id="41" depart="21.03">
        <route edges="41_4way_16to4way_15 38_4way_15to4way_14 35_4way_14to4way_13 36_4way_13to4way_19"/>
    </vehicle>
    <vehicle id="42" depart="21.54">
        <route edges="39_4way_14to4way_20 48_4way_20to4way_26 27_4way_26to3way_32"/>
    </vehicle>
    <vehicle id="43" depart="22.05">
        <route edges="47_4way_20to4way_21 49_4way_21to4way_22 17_4way_22to3way_23 10_3way_23to3way_17 4_3way_17to3way_11"/>
    </vehicle>
    <vehicle id="44" depart="22.56">
        <route edges="10_3way_17to3way_23 16_3way_23to3way_29 20_3way_29to3way_34 28_3way_34to3way_33"/>
    </vehicle>
    <vehicle id="45" depart="23.08">
        <route edges="3_3way_1to4way_7 37_4way_7to4way_13 36_4way_13to4way_19"/>
    </vehicle>
    <vehicle id="46" depart="23.59">
        <route edges="3_3way_1to4way_7 37_4way_7to4way_13 36_4way_13to4way_19 45_4way_19to4way_20 47_4way_20to4way_21"/>
    </vehicle>
    <vehicle id="47" depart="24.10">
        <route edges="30_3way_34to4way_28 51_4way_28to4way_22 44_4way_22to4way_16 41_4way_16to4way_15 38_4way_15to4way_14"/>
    </vehicle>
    <vehicle id="48" depart="24.61">
        <route edges="49_4way_22to4way_21 47_4way_21to4way_20 48_4way_20to4way_26"/>
    </vehicle>
    <vehicle id="49" depart="25.13">
        <route edges="46_4way_19to4way_25 52_4way_25to4way_26 53_4way_26to4way_27 54_4way_27to4way_28 21_4way_28to3way_29"/>
    </vehicle>
    <vehicle id="50" depart="25.64">
        <route edges="17_4way_22to3way_23 16_3way_23to3way_29"/>
    </vehicle>
    <vehicle id="51" depart="26.15">
        <route edges="50_4way_27to4way_21 42_4way_21to4way_15 38_4way_15to4way_14 35_4way_14to4way_13 9_4way_13to3way_12"/>
    </vehicle>
    <vehicle id="52" depart="26.67">
        <route edges="29_3way_33to4way_27 50_4way_27to4way_21 47_4way_21to4way_20"/>
    </vehicle>
    <vehicle id="53" depart="27.18">
        <route edges="19_3way_24to4way_25 52_4way_25to4way_26 53_4way_26to4way_27 50_4way_27to4way_21"/>
    </vehicle>
    <vehicle id="54" depart="27.69">
        <route edges="45_4way_19to4way_20 47_4way_20to4way_21 49_4way_21to4way_22 44_4way_22to4way_16 33_4way_16to4way_10"/>
    </vehicle>
    <vehicle id="55" depart="28.20">
        <route edges="47_4way_20to4way_21 49_4way_21to4way_22 44_4way_22to4way_16 33_4way_16to4way_10"/>
    </vehicle>
    <vehicle id="56" depart="28.72">
        <route edges="55_4way_7to4way_8 40_4way_8to4way_14 39_4way_14to4way_20 48_4way_20to4way_26"/>
    </vehicle>
    <vehicle id="57" depart="29.23">
        <route edges="40_4way_8to4way_14 39_4way_14to4way_20 47_4way_20to4way_21 49_4way_21to4way_22"/>
    </vehicle>
    <vehicle id="58" depart="29.74">
        <route edges="46_4way_25to4way_19 13_4way_19to3way_18"/>
    </vehicle>
    <vehicle id="59" depart="30.26">
        <route edges="29_3way_33to4way_27 50_4way_27to4way_21 42_4way_21to4way_15 43_4way_15to4way_9 23_4way_9to3way_3 14_3way_3to3way_2 1_3way_2to3way_1"/>
    </vehicle>
    <vehicle id="60" depart="30.77">
        <route edges="29_3way_33to4way_27 50_4way_27to4way_21 42_4way_21to4way_15 38_4way_15to4way_14"/>
    </vehicle>
    <vehicle id="61" depart="31.28">
        <route edges="12_3way_18to3way_24 19_3way_24to4way_25"/>
    </vehicle>
    <vehicle id="62" depart="31.79">
        <route edges="28_3way_33to3way_34 20_3way_34to3way_29 16_3way_29to3way_23 10_3way_23to3way_17 4_3way_17to3way_11"/>
    </vehicle>
    <vehicle id="63" depart="32.31">
        <route edges="55_4way_8to4way_7 37_4way_7to4way_13 36_4way_13to4way_19"/>
    </vehicle>
    <vehicle id="64" depart="32.82">
        <route edges="13_3way_18to4way_19 45_4way_19to4way_20 39_4way_20to4way_14 40_4way_14to4way_8"/>
    </vehicle>
    <vehicle id="65" depart="33.33">
        <route edges="24_3way_31to3way_32 26_3way_32to3way_33 28_3way_33to3way_34 30_3way_34to4way_28 51_4way_28to4way_22 44_4way_22to4way_16 33_4way_16to4way_10"/>
    </vehicle>
    <vehicle id="66" depart="33.85">
        <route edges="34_4way_10to4way_9 56_4way_9to4way_8 55_4way_8to4way_7 32_4way_7to3way_6 8_3way_6to3way_12 7_3way_12to3way_18"/>
    </vehicle>
    <vehicle id="67" depart="34.36">
        <route edges="47_4way_20to4way_21 42_4way_21to4way_15"/>
    </vehicle>
    <vehicle id="68" depart="34.87">
        <route edges="33_4way_16to4way_10 31_4way_10to3way_4"/>
    </vehicle>
    <vehicle id="69" depart="35.38">
        <route edges="51_4way_28to4way_22 49_4way_22to4way_21 47_4way_21to4way_20"/>
    </vehicle>
    <vehicle id="70" depart="35.90">
        <route edges="54_4way_27to4way_28 21_4way_28to3way_29 16_3way_29to3way_23 10_3way_23to3way_17 4_3way_17to3way_11"/>
    </vehicle>
    <vehicle id="71" depart="36.41">
        <route edges="52_4way_25to4way_26 53_4way_26to4way_27 54_4way_27to4way_28 21_4way_28to3way_29 16_3way_29to3way_23 10_3way_23to3way_17"/>
    </vehicle>
    <vehicle id="72" depart="36.92">
        <route edges="50_4way_27to4way_21 42_4way_21to4way_15 43_4way_15to4way_9 23_4way_9to3way_3 22_3way_3to3way_4"/>
    </vehicle>
    <vehicle id="73" depart="37.43">
        <route edges="45_4way_19to4way_20 47_4way_20to4way_21 42_4way_21to4way_15"/>
    </vehicle>
    <vehicle id="74" depart="37.95">
        <route edges="14_3way_3to3way_2 1_3way_2to3way_1 2_3way_1to3way_6 8_3way_6to3way_12 7_3way_12to3way_18"/>
    </vehicle>
    <vehicle id="75" depart="38.46">
        <route edges="7_3way_12to3way_18 13_3way_18to4way_19 45_4way_19to4way_20"/>
    </vehicle>
    <vehicle id="76" depart="38.97">
        <route edges="53_4way_27to4way_26"/>
    </vehicle>
    <vehicle id="77" depart="39.49">
        <route edges="54_4way_27to4way_28"/>
    </vehicle>
    <vehicle id="78" depart="40.00">
        <route edges="25_3way_31to4way_25 46_4way_25to4way_19 36_4way_19to4way_13 37_4way_13to4way_7 3_4way_7to3way_1"/>
    </vehicle>
    <vehicle id="79" depart="40.51">
        <route edges="11_3way_17to4way_16 41_4way_16to4way_15 38_4way_15to4way_14 39_4way_14to4way_20 48_4way_20to4way_26"/>
    </vehicle>
    <vehicle id="80" depart="41.02">
        <route edges="1_3way_2to3way_1 3_3way_1to4way_7"/>
    </vehicle>
    <vehicle id="81" depart="41.54">
        <route edges="3_3way_1to4way_7 37_4way_7to4way_13 36_4way_13to4way_19 45_4way_19to4way_20 47_4way_20to4way_21 49_4way_21to4way_22 17_4way_22to3way_23"/>
    </vehicle>
    <vehicle id="82" depart="42.05">
        <route edges="16_3way_29to3way_23 10_3way_23to3way_17 11_3way_17to4way_16 41_4way_16to4way_15"/>
    </vehicle>
    <vehicle id="83" depart="42.56">
        <route edges="44_4way_16to4way_22 51_4way_22to4way_28 30_4way_28to3way_34 28_3way_34to3way_33 26_3way_33to3way_32 24_3way_32to3way_31"/>
    </vehicle>
    <vehicle id="84" depart="43.08">
        <route edges="15_3way_2to4way_8 40_4way_8to4way_14 39_4way_14to4way_20"/>
    </vehicle>
    <vehicle id="85" depart="43.59">
        <route edges="52_4way_25to4way_26 53_4way_26to4way_27 54_4way_27to4way_28 21_4way_28to3way_29 16_3way_29to3way_23 10_3way_23to3way_17"/>
    </vehicle>
    <vehicle id="86" depart="44.10">
        <route edges="16_3way_29to3way_23 17_3way_23to4way_22 49_4way_22to4way_21 47_4way_21to4way_20 45_4way_20to4way_19"/>
    </vehicle>
    <vehicle id="87" depart="44.61">
        <route edges="52_4way_25to4way_26 53_4way_26to4way_27 54_4way_27to4way_28 51_4way_28to4way_22 44_4way_22to4way_16"/>
    </vehicle>
    <vehicle id="88" depart="45.13">
        <route edges="36_4way_19to4way_13"/>
    </vehicle>
    <vehicle id="89" depart="45.64">
        <route edges="29_3way_33to4way_27 53_4way_27to4way_26"/>
    </vehicle>
    <vehicle id="90" depart="46.15">
        <route edges="17_3way_23to4way_22 49_4way_22to4way_21 47_4way_21to4way_20 45_4way_20to4way_19 13_4way_19to3way_18 12_3way_18to3way_24"/>
    </vehicle>
    <vehicle id="91" depart="46.67">
        <route edges="17_4way_22to3way_23 10_3way_23to3way_17"/>
    </vehicle>
    <vehicle id="92" depart="47.18">
        <route edges="32_3way_6to4way_7 55_4way_7to4way_8 40_4way_8to4way_14 39_4way_14to4way_20 48_4way_20to4way_26"/>
    </vehicle>
    <vehicle id="93" depart="47.69">
        <route edges="20_3way_34to3way_29"/>
    </vehicle>
    <vehicle id="94" depart="48.20">
        <route edges="13_3way_18to4way_19 36_4way_19to4way_13 37_4way_13to4way_7 3_4way_7to3way_1 1_3way_1to3way_2"/>
    </vehicle>
    <vehicle id="95" depart="48.72">
        <route edges="48_4way_20to4way_26 27_4way_26to3way_32 26_3way_32to3way_33"/>
    </vehicle>
    <vehicle id="96" depart="49.23">
        <route edges="11_3way_17to4way_16 41_4way_16to4way_15 38_4way_15to4way_14 35_4way_14to4way_13 9_4way_13to3way_12 7_3way_12to3way_18 12_3way_18to3way_24"/>
    </vehicle>
    <vehicle id="97" depart="49.74">
        <route edges="14_3way_3to3way_2 1_3way_2to3way_1"/>
    </vehicle>
    <vehicle id="98" depart="50.25">
        <route edges="9_3way_12to4way_13 35_4way_13to4way_14"/>
    </vehicle>
    <vehicle id="99" depart="50.77">
        <route edges="34_4way_10to4way_9 56_4way_9to4way_8 55_4way_8to4way_7 37_4way_7to4way_13"/>
    </vehicle>
    <vehicle id="100" depart="51.28">
        <route edges="17_3way_23to4way_22 51_4way_22to4way_28"/>
    </vehicle>
    <vehicle id="101" depart="51.79">
        <route edges="30_3way_34to4way_28 51_4way_28to4way_22 44_4way_22to4way_16 41_4way_16to4way_15 38_4way_15to4way_14"/>
    </vehicle>
    <vehicle id="102" depart="52.31">
        <route edges="23_4way_9to3way_3 14_3way_3to3way_2 1_3way_2to3way_1"/>
    </vehicle>
    <vehicle id="103" depart="52.82">
        <route edges="18_3way_24to3way_31 24_3way_31to3way_32"/>
    </vehicle>
    <vehicle id="104" depart="53.33">
        <route edges="47_4way_21to4way_20 45_4way_20to4way_19"/>
    </vehicle>
    <vehicle id="105" depart="53.84">
        <route edges="50_4way_27to4way_21 42_4way_21to4way_15 43_4way_15to4way_9 56_4way_9to4way_8"/>
    </vehicle>
    <vehicle id="106" depart="54.36">
        <route edges="42_4way_15to4way_21 50_4way_21to4way_27 29_4way_27to3way_33 28_3way_33to3way_34"/>
    </vehicle>
    <vehicle id="107" depart="54.87">
        <route edges="17_4way_22to3way_23 10_3way_23to3way_17"/>
    </vehicle>
    <vehicle id="108" depart="55.38">
        <route edges="10_3way_23to3way_17 11_3way_17to4way_16 41_4way_16to4way_15 38_4way_15to4way_14"/>
    </vehicle>
    <vehicle id="109" depart="55.90">
        <route edges="53_4way_26to4way_27 54_4way_27to4way_28 51_4way_28to4way_22"/>
    </vehicle>
    <vehicle id="110" depart="56.41">
        <route edges="16_3way_23to3way_29 20_3way_29to3way_34"/>
    </vehicle>
    <vehicle id="111" depart="56.92">
        <route edges="3_3way_1to4way_7"/>
    </vehicle>
    <vehicle id="112" depart="57.43">
        <route edges="13_3way_18to4way_19 45_4way_19to4way_20 47_4way_20to4way_21 49_4way_21to4way_22 17_4way_22to3way_23"/>
    </vehicle>
    <vehicle id="113" depart="57.95">
        <route edges="7_3way_12to3way_18 12_3way_18to3way_24 18_3way_24to3way_31"/>
    </vehicle>
    <vehicle id="114" depart="58.46">
        <route edges="46_4way_19to4way_25 25_4way_25to3way_31 24_3way_31to3way_32 26_3way_32to3way_33 28_3way_33to3way_34"/>
    </vehicle>
    <vehicle id="115" depart="58.97">
        <route edges="22_3way_4to3way_3 23_3way_3to4way_9 43_4way_9to4way_15 42_4way_15to4way_21 50_4way_21to4way_27"/>
    </vehicle>
    <vehicle id="116" depart="59.49">
        <route edges="6_3way_11to4way_10 34_4way_10to4way_9 56_4way_9to4way_8 55_4way_8to4way_7"/>
    </vehicle>
    <vehicle id="117" depart="60.00">
        <route edges="19_3way_24to4way_25 52_4way_25to4way_26 48_4way_26to4way_20"/>
    </vehicle>
    <vehicle id="118" depart="60.51">
        <route edges="11_3way_17to4way_16 41_4way_16to4way_15 38_4way_15to4way_14 35_4way_14to4way_13 36_4way_13to4way_19"/>
    </vehicle>
    <vehicle id="119" depart="61.02">
        <route edges="32_3way_6to4way_7 55_4way_7to4way_8 56_4way_8to4way_9 34_4way_9to4way_10 6_4way_10to3way_11"/>
    </vehicle>
    <vehicle id="120" depart="61.54">
        <route edges="49_4way_22to4way_21 47_4way_21to4way_20 45_4way_20to4way_19 46_4way_19to4way_25 25_4way_25to3way_31"/>
    </vehicle>
    <vehicle id="121" depart="62.05">
        <route edges="53_4way_26to4way_27 50_4way_27to4way_21 42_4way_21to4way_15 43_4way_15to4way_9"/>
    </vehicle>
    <vehicle id="122" depart="62.56">
        <route edges="23_3way_3to4way_9 34_4way_9to4way_10"/>
    </vehicle>
    <vehicle id="123" depart="63.07">
        <route edges="36_4way_19to4way_13"/>
    </vehicle>
    <vehicle id="124" depart="63.59">
        <route edges="28_3way_33to3way_34 30_3way_34to4way_28 51_4way_28to4way_22"/>
    </vehicle>
    <vehicle id="125" depart="64.10">
        <route edges="31_3way_4to4way_10 33_4way_10to4way_16 44_4way_16to4way_22 51_4way_22to4way_28 21_4way_28to3way_29"/>
    </vehicle>
    <vehicle id="126" depart="64.61">
        <route edges="33_4way_16to4way_10 31_4way_10to3way_4 22_3way_4to3way_3 14_3way_3to3way_2 1_3way_2to3way_1"/>
    </vehicle>
    <vehicle id="127" depart="65.13">
        <route edges="38_4way_15to4way_14"/>
    </vehicle>
    <vehicle id="128" depart="65.64">
        <route edges="46_4way_19to4way_25 25_4way_25to3way_31 24_3way_31to3way_32 26_3way_32to3way_33"/>
    </vehicle>
    <vehicle id="129" depart="66.15">
        <route edges="2_3way_6to3way_1 1_3way_1to3way_2 14_3way_2to3way_3"/>
    </vehicle>
    <vehicle id="130" depart="66.66">
        <route edges="33_4way_10to4way_16 44_4way_16to4way_22 51_4way_22to4way_28"/>
    </vehicle>
    <vehicle id="131" depart="67.18">
        <route edges="49_4way_22to4way_21 47_4way_21to4way_20 48_4way_20to4way_26 27_4way_26to3way_32"/>
    </vehicle>
    <vehicle id="132" depart="67.69">
        <route edges="51_4way_22to4way_28 21_4way_28to3way_29"/>
    </vehicle>
    <vehicle id="133" depart="68.20">
        <route edges="42_4way_15to4way_21 49_4way_21to4way_22"/>
    </vehicle>
    <vehicle id="134" depart="68.72">
        <route edges="50_4way_27to4way_21 42_4way_21to4way_15 43_4way_15to4way_9 56_4way_9to4way_8"/>
    </vehicle>
    <vehicle id="135" depart="69.23">
        <route edges="29_4way_27to3way_33"/>
    </vehicle>
    <vehicle id="136" depart="69.74">
        <route edges="3_3way_1to4way_7 37_4way_7to4way_13 36_4way_13to4way_19 46_4way_19to4way_25"/>
    </vehicle>
    <vehicle id="137" depart="70.25">
        <route edges="4_3way_11to3way_17 10_3way_17to3way_23 16_3way_23to3way_29 20_3way_29to3way_34 28_3way_34to3way_33 26_3way_33to3way_32 24_3way_32to3way_31"/>
    </vehicle>
    <vehicle id="138" depart="70.77">
        <route edges="8_3way_6to3way_12 7_3way_12to3way_18 12_3way_18to3way_24 19_3way_24to4way_25 52_4way_25to4way_26 53_4way_26to4way_27 54_4way_27to4way_28"/>
    </vehicle>
    <vehicle id="139" depart="71.28">
        <route edges="55_4way_8to4way_7 32_4way_7to3way_6"/>
    </vehicle>
    <vehicle id="140" depart="71.79">
        <route edges="6_3way_11to4way_10 34_4way_10to4way_9 56_4way_9to4way_8 55_4way_8to4way_7 37_4way_7to4way_13 36_4way_13to4way_19 46_4way_19to4way_25 25_4way_25to3way_31"/>
    </vehicle>
    <vehicle id="141" depart="72.31">
        <route edges="17_3way_23to4way_22 49_4way_22to4way_21"/>
    </vehicle>
    <vehicle id="142" depart="72.82">
        <route edges="16_3way_29to3way_23 10_3way_23to3way_17 4_3way_17to3way_11 6_3way_11to4way_10 34_4way_10to4way_9 56_4way_9to4way_8 55_4way_8to4way_7"/>
    </vehicle>
    <vehicle id="143" depart="73.33">
        <route edges="54_4way_27to4way_28 51_4way_28to4way_22 44_4way_22to4way_16 33_4way_16to4way_10 31_4way_10to3way_4"/>
    </vehicle>
    <vehicle id="144" depart="73.84">
        <route edges="51_4way_22to4way_28"/>
    </vehicle>
    <vehicle id="145" depart="74.36">
        <route edges="43_4way_9to4way_15 41_4way_15to4way_16"/>
    </vehicle>
    <vehicle id="146" depart="74.87">
        <route edges="14_3way_3to3way_2 15_3way_2to4way_8 40_4way_8to4way_14 39_4way_14to4way_20 48_4way_20to4way_26 27_4way_26to3way_32"/>
    </vehicle>
    <vehicle id="147" depart="75.38">
        <route edges="21_3way_29to4way_28 54_4way_28to4way_27 53_4way_27to4way_26 52_4way_26to4way_25 19_4way_25to3way_24 12_3way_24to3way_18"/>
    </vehicle>
    <vehicle id="148" depart="75.89">
        <route edges="15_3way_2to4way_8 56_4way_8to4way_9 34_4way_9to4way_10 6_4way_10to3way_11"/>
    </vehicle>
    <vehicle id="149" depart="76.41">
        <route edges="3_3way_1to4way_7 37_4way_7to4way_13 36_4way_13to4way_19 46_4way_19to4way_25 52_4way_25to4way_26"/>
    </vehicle>
    <vehicle id="150" depart="76.92">
        <route edges="6_3way_11to4way_10 34_4way_10to4way_9"/>
    </vehicle>
    <vehicle id="151" depart="77.43">
        <route edges="21_3way_29to4way_28 54_4way_28to4way_27 50_4way_27to4way_21 42_4way_21to4way_15 38_4way_15to4way_14"/>
    </vehicle>
    <vehicle id="152" depart="77.95">
        <route edges="9_4way_13to3way_12 7_3way_12to3way_18"/>
    </vehicle>
    <vehicle id="153" depart="78.46">
        <route edges="53_4way_26to4way_27"/>
    </vehicle>
    <vehicle id="154" depart="78.97">
        <route edges="4_3way_11to3way_17 10_3way_17to3way_23 16_3way_23to3way_29 20_3way_29to3way_34"/>
    </vehicle>
    <vehicle id="155" depart="79.48">
        <route edges="29_3way_33to4way_27 50_4way_27to4way_21 42_4way_21to4way_15 43_4way_15to4way_9 23_4way_9to3way_3 14_3way_3to3way_2"/>
    </vehicle>
    <vehicle id="156" depart="80.00">
        <route edges="7_3way_12to3way_18 12_3way_18to3way_24 18_3way_24to3way_31 24_3way_31to3way_32 26_3way_32to3way_33 28_3way_33to3way_34"/>
    </vehicle>
    <vehicle id="157" depart="80.51">
        <route edges="39_4way_20to4way_14"/>
    </vehicle>
    <vehicle id="158" depart="81.02">
        <route edges="18_3way_24to3way_31 24_3way_31to3way_32 26_3way_32to3way_33"/>
    </vehicle>
    <vehicle id="159" depart="81.54">
        <route edges="41_4way_15to4way_16 11_4way_16to3way_17"/>
    </vehicle>
    <vehicle id="160" depart="82.05">
        <route edges="39_4way_20to4way_14 40_4way_14to4way_8 15_4way_8to3way_2"/>
    </vehicle>
    <vehicle id="161" depart="82.56">
        <route edges="24_3way_31to3way_32 26_3way_32to3way_33 28_3way_33to3way_34"/>
    </vehicle>
    <vehicle id="162" depart="83.07">
        <route edges="30_3way_34to4way_28 51_4way_28to4way_22 49_4way_22to4way_21 47_4way_21to4way_20 45_4way_20to4way_19"/>
    </vehicle>
    <vehicle id="163" depart="83.59">
        <route edges="17_3way_23to4way_22 49_4way_22to4way_21 47_4way_21to4way_20 45_4way_20to4way_19 46_4way_19to4way_25 25_4way_25to3way_31"/>
    </vehicle>
    <vehicle id="164" depart="84.10">
        <route edges="1_3way_2to3way_1 2_3way_1to3way_6 8_3way_6to3way_12"/>
    </vehicle>
    <vehicle id="165" depart="84.61">
        <route edges="23_3way_3to4way_9 43_4way_9to4way_15"/>
    </vehicle>
    <vehicle id="166" depart="85.13">
        <route edges="29_3way_33to4way_27 50_4way_27to4way_21 42_4way_21to4way_15 43_4way_15to4way_9 56_4way_9to4way_8 55_4way_8to4way_7"/>
    </vehicle>
    <vehicle id="167" depart="85.64">
        <route edges="49_4way_22to4way_21 47_4way_21to4way_20 45_4way_20to4way_19"/>
    </vehicle>
    <vehicle id="168" depart="86.15">
        <route edges="15_3way_2to4way_8"/>
    </vehicle>
    <vehicle id="169" depart="86.66">
        <route edges="32_4way_7to3way_6 8_3way_6to3way_12 7_3way_12to3way_18"/>
    </vehicle>
    <vehicle id="170" depart="87.18">
        <route edges="35_4way_14to4way_13"/>
    </vehicle>
    <vehicle id="171" depart="87.69">
        <route edges="6_3way_11to4way_10 33_4way_10to4way_16 44_4way_16to4way_22 51_4way_22to4way_28 30_4way_28to3way_34"/>
    </vehicle>
    <vehicle id="172" depart="88.20">
        <route edges="49_4way_22to4way_21 47_4way_21to4way_20 45_4way_20to4way_19 13_4way_19to3way_18 12_3way_18to3way_24"/>
    </vehicle>
    <vehicle id="173" depart="88.71">
        <route edges="33_4way_10to4way_16 11_4way_16to3way_17"/>
    </vehicle>
    <vehicle id="174" depart="89.23">
        <route edges="9_3way_12to4way_13"/>
    </vehicle>
    <vehicle id="175" depart="89.74">
        <route edges="9_3way_12to4way_13 35_4way_13to4way_14 38_4way_14to4way_15 41_4way_15to4way_16 33_4way_16to4way_10"/>
    </vehicle>
    <vehicle id="176" depart="90.25">
        <route edges="19_3way_24to4way_25 52_4way_25to4way_26"/>
    </vehicle>
    <vehicle id="177" depart="90.77">
        <route edges="47_4way_20to4way_21 49_4way_21to4way_22 44_4way_22to4way_16 33_4way_16to4way_10"/>
    </vehicle>
    <vehicle id="178" depart="91.28">
        <route edges="27_3way_32to4way_26 48_4way_26to4way_20"/>
    </vehicle>
    <vehicle id="179" depart="91.79">
        <route edges="56_4way_8to4way_9"/>
    </vehicle>
    <vehicle id="180" depart="92.30">
        <route edges="10_3way_17to3way_23 16_3way_23to3way_29"/>
    </vehicle>
    <vehicle id="181" depart="92.82">
        <route edges="44_4way_22to4way_16 41_4way_16to4way_15"/>
    </vehicle>
    <vehicle id="182" depart="93.33">
        <route edges="36_4way_19to4way_13 9_4way_13to3way_12"/>
    </vehicle>
    <vehicle id="183" depart="93.84">
        <route edges="7_3way_12to3way_18 12_3way_18to3way_24 19_3way_24to4way_25 52_4way_25to4way_26 53_4way_26to4way_27"/>
    </vehicle>
    <vehicle id="184" depart="94.36">
        <route edges="45_4way_19to4way_20 47_4way_20to4way_21 49_4way_21to4way_22"/>
    </vehicle>
    <vehicle id="185" depart="94.87">
        <route edges="41_4way_16to4way_15 42_4way_15to4way_21"/>
    </vehicle>
    <vehicle id="186" depart="95.38">
        <route edges="11_3way_17to4way_16 41_4way_16to4way_15 42_4way_15to4way_21"/>
    </vehicle>
    <vehicle id="187" depart="95.89">
        <route edges="19_3way_24to4way_25 52_4way_25to4way_26 48_4way_26to4way_20 39_4way_20to4way_14 40_4way_14to4way_8"/>
    </vehicle>
    <vehicle id="188" depart="96.41">
        <route edges="13_3way_18to4way_19 45_4way_19to4way_20 47_4way_20to4way_21 42_4way_21to4way_15 43_4way_15to4way_9 23_4way_9to3way_3"/>
    </vehicle>
    <vehicle id="189" depart="96.92">
        <route edges="29_4way_27to3way_33 28_3way_33to3way_34"/>
    </vehicle>
    <vehicle id="190" depart="97.43">
        <route edges="44_4way_22to4way_16 33_4way_16to4way_10 31_4way_10to3way_4 22_3way_4to3way_3 14_3way_3to3way_2"/>
    </vehicle>
    <vehicle id="191" depart="97.95">
        <route edges="4_3way_17to3way_11 5_3way_11to3way_4 22_3way_4to3way_3 14_3way_3to3way_2 1_3way_2to3way_1"/>
    </vehicle>
    <vehicle id="192" depart="98.46">
        <route edges="41_4way_16to4way_15 38_4way_15to4way_14 35_4way_14to4way_13 9_4way_13to3way_12 7_3way_12to3way_18 12_3way_18to3way_24"/>
    </vehicle>
    <vehicle id="193" depart="98.97">
        <route edges="44_4way_22to4way_16 33_4way_16to4way_10 31_4way_10to3way_4"/>
    </vehicle>
    <vehicle id="194" depart="99.48">