<routes xmlns:xsi="http://www.w3.org/2001/XMLSchema-instance" xsi:noNamespaceSchemaLocation="http://sumo.dlr.de/xsd/routes_file.xsd">
<trip id="0" depart="0.0" fromJunction="4way_20" toJunction="4way_13"/>
<trip id="1" depart="0.5128" fromJunction="4way_13" toJunction="4way_25"/>
<trip id="2" depart="1.0256" fromJunction="4way_8" toJunction="3way_18"/>
<trip id="3" depart="1.5384000000000002" fromJunction="4way_10" toJunction="3way_12"/>
<trip id="4" depart="2.0512" fromJunction="3way_24" toJunction="4way_22"/>
<trip id="5" depart="2.564" fromJunction="4way_7" toJunction="4way_15"/>
<trip id="6" depart="3.0768000000000004" fromJunction="4way_16" toJunction="4way_19"/>
<trip id="7" depart="3.5896000000000003" fromJunction="4way_21" toJunction="3way_1"/>
<trip id="8" depart="4.1024" fromJunction="4way_27" toJunction="4way_9"/>
<trip id="9" depart="4.615200000000001" fromJunction="4way_15" toJunction="4way_28"/>
<trip id="10" depart="5.128" fromJunction="4way_9" toJunction="3way_12"/>
<trip id="11" depart="5.6408000000000005" fromJunction="4way_8" toJunction="3way_4"/>
<trip id="12" depart="6.153600000000001" fromJunction="4way_22" toJunction="3way_11"/>
<trip id="13" depart="6.6664" fromJunction="3way_18" toJunction="4way_7"/>
<trip id="14" depart="7.179200000000001" fromJunction="4way_9" toJunction="3way_34"/>
<trip id="15" depart="7.692" fromJunction="4way_19" toJunction="3way_12"/>
<trip id="16" depart="8.2048" fromJunction="4way_25" toJunction="3way_1"/>
<trip id="17" depart="8.717600000000001" fromJunction="4way_14" toJunction="4way_22"/>
<trip id="18" depart="9.230400000000001" fromJunction="3way_18" toJunction="3way_31"/>
<trip id="19" depart="9.7432" fromJunction="3way_2" toJunction="4way_20"/>
<trip id="20" depart="10.256" fromJunction="3way_11" toJunction="3way_23"/>
<trip id="21" depart="10.7688" fromJunction="3way_31" toJunction="3way_32"/>
<trip id="22" depart="11.281600000000001" fromJunction="3way_12" toJunction="4way_19"/>
<trip id="23" depart="11.794400000000001" fromJunction="3way_4" toJunction="4way_28"/>
<trip id="24" depart="12.307200000000002" fromJunction="3way_17" toJunction="3way_23"/>
<trip id="25" depart="12.82" fromJunction="3way_34" toJunction="4way_8"/>
<trip id="26" depart="13.3328" fromJunction="3way_29" toJunction="3way_12"/>
<trip id="27" depart="13.845600000000001" fromJunction="3way_4" toJunction="3way_17"/>
<trip id="28" depart="14.358400000000001" fromJunction="3way_11" toJunction="4way_14"/>
<trip id="29" depart="14.871200000000002" fromJunction="3way_31" toJunction="3way_23"/>
<trip id="30" depart="15.384" fromJunction="3way_4" toJunction="4way_21"/>
<trip id="31" depart="15.8968" fromJunction="3way_4" toJunction="4way_21"/>
<trip id="32" depart="16.4096" fromJunction="3way_12" toJunction="4way_28"/>
<trip id="33" depart="16.9224" fromJunction="4way_25" toJunction="4way_28"/>
<trip id="34" depart="17.435200000000002" fromJunction="3way_2" toJunction="4way_26"/>
<trip id="35" depart="17.948" fromJunction="3way_4" toJunction="3way_33"/>
<trip id="36" depart="18.460800000000003" fromJunction="3way_4" toJunction="3way_33"/>
<trip id="37" depart="18.9736" fromJunction="3way_18" toJunction="3way_32"/>
<trip id="38" depart="19.4864" fromJunction="4way_20" toJunction="3way_3"/>
<trip id="39" depart="19.999200000000002" fromJunction="3way_34" toJunction="4way_19"/>
<trip id="40" depart="20.512" fromJunction="3way_4" toJunction="4way_7"/>
<trip id="41" depart="21.024800000000003" fromJunction="4way_16" toJunction="4way_19"/>
<trip id="42" depart="21.5376" fromJunction="4way_14" toJunction="3way_32"/>
<trip id="43" depart="22.0504" fromJunction="4way_20" toJunction="3way_11"/>
<trip id="44" depart="22.563200000000002" fromJunction="3way_17" toJunction="3way_33"/>
<trip id="45" depart="23.076" fromJunction="3way_1" toJunction="4way_19"/>
<trip id="46" depart="23.588800000000003" fromJunction="3way_1" toJunction="4way_21"/>
<trip id="47" depart="24.1016" fromJunction="3way_34" toJunction="4way_14"/>
<trip id="48" depart="24.614400000000003" fromJunction="4way_22" toJunction="4way_26"/>
<trip id="49" depart="25.127200000000002" fromJunction="4way_19" toJunction="3way_29"/>
<trip id="50" depart="25.64" fromJunction="4way_22" toJunction="3way_29"/>
<trip id="51" depart="26.152800000000003" fromJunction="4way_27" toJunction="3way_12"/>
<trip id="52" depart="26.6656" fromJunction="3way_33" toJunction="4way_20"/>
<trip id="53" depart="27.178400000000003" fromJunction="3way_24" toJunction="4way_21"/>
<trip id="54" depart="27.691200000000002" fromJunction="4way_19" toJunction="4way_10"/>
<trip id="55" depart="28.204" fromJunction="4way_20" toJunction="4way_10"/>
<trip id="56" depart="28.716800000000003" fromJunction="4way_7" toJunction="4way_26"/>
<trip id="57" depart="29.2296" fromJunction="4way_8" toJunction="4way_22"/>
<trip id="58" depart="29.742400000000004" fromJunction="4way_25" toJunction="3way_18"/>
<trip id="59" depart="30.255200000000002" fromJunction="3way_33" toJunction="3way_1"/>
<trip id="60" depart="30.768" fromJunction="3way_33" toJunction="4way_14"/>
<trip id="61" depart="31.280800000000003" fromJunction="3way_18" toJunction="4way_25"/>
<trip id="62" depart="31.7936" fromJunction="3way_33" toJunction="3way_11"/>
<trip id="63" depart="32.306400000000004" fromJunction="4way_8" toJunction="4way_19"/>
<trip id="64" depart="32.8192" fromJunction="3way_18" toJunction="4way_8"/>
<trip id="65" depart="33.332" fromJunction="3way_31" toJunction="4way_10"/>
<trip id="66" depart="33.8448" fromJunction="4way_10" toJunction="3way_18"/>
<trip id="67" depart="34.357600000000005" fromJunction="4way_20" toJunction="4way_15"/>
<trip id="68" depart="34.870400000000004" fromJunction="4way_16" toJunction="3way_4"/>
<trip id="69" depart="35.3832" fromJunction="4way_28" toJunction="4way_20"/>
<trip id="70" depart="35.896" fromJunction="4way_27" toJunction="3way_11"/>
<trip id="71" depart="36.4088" fromJunction="4way_25" toJunction="3way_17"/>
<trip id="72" depart="36.921600000000005" fromJunction="4way_27" toJunction="3way_4"/>
<trip id="73" depart="37.434400000000004" fromJunction="4way_19" toJunction="4way_15"/>
<trip id="74" depart="37.9472" fromJunction="3way_3" toJunction="3way_18"/>
<trip id="75" depart="38.46" fromJunction="3way_12" toJunction="4way_20"/>
<trip id="76" depart="38.9728" fromJunction="4way_27" toJunction="4way_26"/>
<trip id="77" depart="39.485600000000005" fromJunction="4way_27" toJunction="4way_28"/>
<trip id="78" depart="39.998400000000004" fromJunction="3way_31" toJunction="3way_1"/>
<trip id="79" depart="40.5112" fromJunction="3way_17" toJunction="4way_26"/>
<trip id="80" depart="41.024" fromJunction="3way_2" toJunction="4way_7"/>
<trip id="81" depart="41.5368" fromJunction="3way_1" toJunction="3way_23"/>
<trip id="82" depart="42.049600000000005" fromJunction="3way_29" toJunction="4way_15"/>
<trip id="83" depart="42.562400000000004" fromJunction="4way_16" toJunction="3way_31"/>
<trip id="84" depart="43.0752" fromJunction="3way_2" toJunction="4way_20"/>
<trip id="85" depart="43.588" fromJunction="4way_25" toJunction="3way_17"/>
<trip id="86" depart="44.1008" fromJunction="3way_29" toJunction="4way_19"/>
<trip id="87" depart="44.613600000000005" fromJunction="4way_25" toJunction="4way_16"/>
<trip id="88" depart="45.126400000000004" fromJunction="4way_19" toJunction="4way_13"/>
<trip id="89" depart="45.6392" fromJunction="3way_33" toJunction="4way_26"/>
<trip id="90" depart="46.152" fromJunction="3way_23" toJunction="3way_24"/>
<trip id="91" depart="46.6648" fromJunction="4way_22" toJunction="3way_17"/>
<trip id="92" depart="47.177600000000005" fromJunction="3way_6" toJunction="4way_26"/>
<trip id="93" depart="47.690400000000004" fromJunction="3way_34" toJunction="3way_29"/>
<trip id="94" depart="48.2032" fromJunction="3way_18" toJunction="3way_2"/>
<trip id="95" depart="48.716" fromJunction="4way_20" toJunction="3way_33"/>
<trip id="96" depart="49.22880000000001" fromJunction="3way_17" toJunction="3way_24"/>
<trip id="97" depart="49.741600000000005" fromJunction="3way_3" toJunction="3way_1"/>
<trip id="98" depart="50.254400000000004" fromJunction="3way_12" toJunction="4way_14"/>
<trip id="99" depart="50.7672" fromJunction="4way_10" toJunction="4way_13"/>
<trip id="100" depart="51.28" fromJunction="3way_23" toJunction="4way_28"/>
<trip id="101" depart="51.79280000000001" fromJunction="3way_34" toJunction="4way_14"/>
<trip id="102" depart="52.305600000000005" fromJunction="4way_9" toJunction="3way_1"/>
<trip id="103" depart="52.818400000000004" fromJunction="3way_24" toJunction="3way_32"/>
<trip id="104" depart="53.3312" fromJunction="4way_21" toJunction="4way_19"/>
<trip id="105" depart="53.844" fromJunction="4way_27" toJunction="4way_8"/>
<trip id="106" depart="54.35680000000001" fromJunction="4way_15" toJunction="3way_34"/>
<trip id="107" depart="54.869600000000005" fromJunction="4way_22" toJunction="3way_17"/>
<trip id="108" depart="55.382400000000004" fromJunction="3way_23" toJunction="4way_14"/>
<trip id="109" depart="55.8952" fromJunction="4way_26" toJunction="4way_22"/>
<trip id="110" depart="56.408" fromJunction="3way_23" toJunction="3way_34"/>
<trip id="111" depart="56.92080000000001" fromJunction="3way_1" toJunction="4way_7"/>
<trip id="112" depart="57.433600000000006" fromJunction="3way_18" toJunction="3way_23"/>
<trip id="113" depart="57.946400000000004" fromJunction="3way_12" toJunction="3way_31"/>
<trip id="114" depart="58.4592" fromJunction="4way_19" toJunction="3way_34"/>
<trip id="115" depart="58.972" fromJunction="3way_4" toJunction="4way_27"/>
<trip id="116" depart="59.48480000000001" fromJunction="3way_11" toJunction="4way_7"/>
<trip id="117" depart="59.997600000000006" fromJunction="3way_24" toJunction="4way_20"/>
<trip id="118" depart="60.510400000000004" fromJunction="3way_17" toJunction="4way_19"/>
<trip id="119" depart="61.0232" fromJunction="3way_6" toJunction="3way_11"/>
<trip id="120" depart="61.536" fromJunction="4way_22" toJunction="3way_31"/>
<trip id="121" depart="62.04880000000001" fromJunction="4way_26" toJunction="4way_9"/>
<trip id="122" depart="62.561600000000006" fromJunction="3way_3" toJunction="4way_10"/>
<trip id="123" depart="63.074400000000004" fromJunction="4way_19" toJunction="4way_13"/>
<trip id="124" depart="63.5872" fromJunction="3way_33" toJunction="4way_22"/>
<trip id="125" depart="64.10000000000001" fromJunction="3way_4" toJunction="3way_29"/>
<trip id="126" depart="64.61280000000001" fromJunction="4way_16" toJunction="3way_1"/>
<trip id="127" depart="65.1256" fromJunction="4way_15" toJunction="4way_14"/>
<trip id="128" depart="65.6384" fromJunction="4way_19" toJunction="3way_33"/>
<trip id="129" depart="66.1512" fromJunction="3way_6" toJunction="3way_3"/>
<trip id="130" depart="66.664" fromJunction="4way_10" toJunction="4way_28"/>
<trip id="131" depart="67.1768" fromJunction="4way_22" toJunction="3way_32"/>
<trip id="132" depart="67.6896" fromJunction="4way_22" toJunction="3way_29"/>
<trip id="133" depart="68.20240000000001" fromJunction="4way_15" toJunction="4way_22"/>
<trip id="134" depart="68.71520000000001" fromJunction="4way_27" toJunction="4way_8"/>
<trip id="135" depart="69.22800000000001" fromJunction="4way_27" toJunction="3way_33"/>
<trip id="136" depart="69.74080000000001" fromJunction="3way_1" toJunction="4way_25"/>
<trip id="137" depart="70.2536" fromJunction="3way_11" toJunction="3way_31"/>
<trip id="138" depart="70.7664" fromJunction="3way_6" toJunction="4way_28"/>
<trip id="139" depart="71.2792" fromJunction="4way_8" toJunction="3way_6"/>
<trip id="140" depart="71.792" fromJunction="3way_11" toJunction="3way_31"/>
<trip id="141" depart="72.3048" fromJunction="3way_23" toJunction="4way_21"/>
<trip id="142" depart="72.8176" fromJunction="3way_29" toJunction="4way_7"/>
<trip id="143" depart="73.33040000000001" fromJunction="4way_27" toJunction="3way_4"/>
<trip id="144" depart="73.84320000000001" fromJunction="4way_22" toJunction="4way_28"/>
<trip id="145" depart="74.35600000000001" fromJunction="4way_9" toJunction="4way_16"/>
<trip id="146" depart="74.86880000000001" fromJunction="3way_3" toJunction="3way_32"/>
<trip id="147" depart="75.3816" fromJunction="3way_29" toJunction="3way_18"/>
<trip id="148" depart="75.8944" fromJunction="3way_2" toJunction="3way_11"/>
<trip id="149" depart="76.4072" fromJunction="3way_1" toJunction="4way_26"/>
<trip id="150" depart="76.92" fromJunction="3way_11" toJunction="4way_9"/>
<trip id="151" depart="77.4328" fromJunction="3way_29" toJunction="4way_14"/>
<trip id="152" depart="77.9456" fromJunction="4way_13" toJunction="3way_18"/>
<trip id="153" depart="78.45840000000001" fromJunction="4way_26" toJunction="4way_27"/>
<trip id="154" depart="78.97120000000001" fromJunction="3way_11" toJunction="3way_34"/>
<trip id="155" depart="79.48400000000001" fromJunction="3way_33" toJunction="3way_2"/>
<trip id="156" depart="79.99680000000001" fromJunction="3way_12" toJunction="3way_34"/>
<trip id="157" depart="80.5096" fromJunction="4way_20" toJunction="4way_14"/>
<trip id="158" depart="81.0224" fromJunction="3way_24" toJunction="3way_33"/>
<trip id="159" depart="81.5352" fromJunction="4way_15" toJunction="3way_17"/>
<trip id="160" depart="82.048" fromJunction="4way_20" toJunction="3way_2"/>
<trip id="161" depart="82.5608" fromJunction="3way_31" toJunction="3way_34"/>
<trip id="162" depart="83.0736" fromJunction="3way_34" toJunction="4way_19"/>
<trip id="163" depart="83.58640000000001" fromJunction="3way_23" toJunction="3way_31"/>
<trip id="164" depart="84.09920000000001" fromJunction="3way_2" toJunction="3way_12"/>
<trip id="165" depart="84.61200000000001" fromJunction="3way_3" toJunction="4way_15"/>
<trip id="166" depart="85.12480000000001" fromJunction="3way_33" toJunction="4way_7"/>
<trip id="167" depart="85.6376" fromJunction="4way_22" toJunction="4way_19"/>
<trip id="168" depart="86.1504" fromJunction="3way_2" toJunction="4way_8"/>
<trip id="169" depart="86.6632" fromJunction="4way_7" toJunction="3way_18"/>
<trip id="170" depart="87.176" fromJunction="4way_14" toJunction="4way_13"/>
<trip id="171" depart="87.6888" fromJunction="3way_11" toJunction="3way_34"/>
<trip id="172" depart="88.2016" fromJunction="4way_22" toJunction="3way_24"/>
<trip id="173" depart="88.71440000000001" fromJunction="4way_10" toJunction="3way_17"/>
<trip id="174" depart="89.22720000000001" fromJunction="3way_12" toJunction="4way_13"/>
<trip id="175" depart="89.74000000000001" fromJunction="3way_12" toJunction="4way_10"/>
<trip id="176" depart="90.25280000000001" fromJunction="3way_24" toJunction="4way_26"/>
<trip id="177" depart="90.7656" fromJunction="4way_20" toJunction="4way_10"/>
<trip id="178" depart="91.2784" fromJunction="3way_32" toJunction="4way_20"/>
<trip id="179" depart="91.7912" fromJunction="4way_8" toJunction="4way_9"/>
<trip id="180" depart="92.304" fromJunction="3way_17" toJunction="3way_29"/>
<trip id="181" depart="92.8168" fromJunction="4way_22" toJunction="4way_15"/>
<trip id="182" depart="93.3296" fromJunction="4way_19" toJunction="3way_12"/>
<trip id="183" depart="93.84240000000001" fromJunction="3way_12" toJunction="4way_27"/>
<trip id="184" depart="94.35520000000001" fromJunction="4way_19" toJunction="4way_22"/>
<trip id="185" depart="94.86800000000001" fromJunction="4way_16" toJunction="4way_21"/>
<trip id="186" depart="95.38080000000001" fromJunction="3way_17" toJunction="4way_21"/>
<trip id="187" depart="95.8936" fromJunction="3way_24" toJunction="4way_8"/>
<trip id="188" depart="96.4064" fromJunction="3way_18" toJunction="3way_3"/>
<trip id="189" depart="96.9192" fromJunction="4way_27" toJunction="3way_34"/>
<trip id="190" depart="97.432" fromJunction="4way_22" toJunction="3way_2"/>
<trip id="191" depart="97.9448" fromJunction="3way_17" toJunction="3way_1"/>
<trip id="192" depart="98.45760000000001" fromJunction="4way_16" toJunction="3way_24"/>
<trip id="193" depart="98.97040000000001" fromJunction="4way_22" toJunction="3way_4"/>
<trip id="194" depart="99.48320000000001" fromJunction="3way_12" toJunction="4way_27"/>
<trip id="195" depart="99.99600000000001" fromJunction="3way_29" toJunction="3way_32"/>
<trip id="196" depart="100.50880000000001" fromJunction="3way_2" toJunction="4way_25"/>
<trip id="197" depart="101.0216" fromJunction="3way_18" toJunction="3way_1"/>
<trip id="198" depart="101.5344" fromJunction="3way_34" toJunction="3way_3"/>
<trip id="199" depart="102.0472" fromJunction="3way_34" toJunction="3way_29"/>
<trip id="200" depart="102.56" fromJunction="3way_1" toJunction="3way_11"/>
<trip id="201" depart="103.0728" fromJunction="4way_25" toJunction="3way_4"/>
<trip id="202" depart="103.58560000000001" fromJunction="3way_17" toJunction="3way_18"/>
<trip id="203" depart="104.09840000000001" fromJunction="3way_6" toJunction="4way_8"/>
<trip id="204" depart="104.61120000000001" fromJunction="3way_3" toJunction="4way_28"/>
<trip id="205" depart="105.12400000000001" fromJunction="3way_33" toJunction="4way_15"/>
<trip id="206" depart="105.63680000000001" fromJunction="4way_14" toJunction="3way_29"/>
<trip id="207" depart="106.1496" fromJunction="4way_14" toJunction="3way_29"/>
<trip id="208" depart="106.6624" fromJunction="3way_18" toJunction="4way_7"/>
<trip id="209" depart="107.1752" fromJunction="3way_33" toJunction="4way_13"/>
<trip id="210" depart="107.688" fromJunction="3way_18" toJunction="4way_20"/>
<trip id="211" depart="108.2008" fromJunction="4way_21" toJunction="3way_31"/>
<trip id="212" depart="108.71360000000001" fromJunction="3way_2" toJunction="4way_16"/>
<trip id="213" depart="109.22640000000001" fromJunction="3way_31" toJunction="3way_29"/>
<trip id="214" depart="109.73920000000001" fromJunction="4way_28" toJunction="4way_21"/>
<trip id="215" depart="110.25200000000001" fromJunction="4way_10" toJunction="4way_28"/>
<trip id="216" depart="110.76480000000001" fromJunction="4way_28" toJunction="3way_33"/>
<trip id="217" depart="111.2776" fromJunction="3way_4" toJunction="3way_29"/>
<trip id="218" depart="111.7904" fromJunction="3way_29" toJunction="4way_22"/>
<trip id="219" depart="112.3032" fromJunction="3way_2" toJunction="4way_20"/>
<trip id="220" depart="112.816" fromJunction="4way_10" toJunction="4way_26"/>
<trip id="221" depart="113.3288" fromJunction="3way_24" toJunction="3way_34"/>
<trip id="222" depart="113.84160000000001" fromJunction="4way_26" toJunction="3way_31"/>
<trip id="223" depart="114.35440000000001" fromJunction="3way_17" toJunction="3way_29"/>
<trip id="224" depart="114.86720000000001" fromJunction="3way_33" toJunction="3way_12"/>
<trip id="225" depart="115.38000000000001" fromJunction="3way_29" toJunction="4way_21"/>
<trip id="226" depart="115.89280000000001" fromJunction="4way_22" toJunction="4way_7"/>
<trip id="227" depart="116.4056" fromJunction="4way_27" toJunction="4way_8"/>
<trip id="228" depart="116.9184" fromJunction="4way_9" toJunction="4way_22"/>
<trip id="229" depart="117.4312" fromJunction="4way_22" toJunction="4way_20"/>
<trip id="230" depart="117.944" fromJunction="3way_12" toJunction="4way_28"/>
<trip id="231" depart="118.4568" fromJunction="3way_33" toJunction="3way_3"/>
<trip id="232" depart="118.96960000000001" fromJunction="3way_18" toJunction="3way_11"/>
<trip id="233" depart="119.48240000000001" fromJunction="4way_25" toJunction="3way_11"/>
<trip id="234" depart="119.99520000000001" fromJunction="4way_10" toJunction="3way_24"/>
<trip id="235" depart="120.50800000000001" fromJunction="4way_13" toJunction="4way_22"/>
<trip id="236" depart="121.02080000000001" fromJunction="4way_19" toJunction="3way_34"/>
<trip id="237" depart="121.5336" fromJunction="3way_18" toJunction="4way_10"/>
<trip id="238" depart="122.0464" fromJunction="3way_34" toJunction="4way_13"/>
<trip id="239" depart="122.5592" fromJunction="3way_24" toJunction="3way_12"/>
<trip id="240" depart="123.072" fromJunction="4way_7" toJunction="3way_29"/>
<trip id="241" depart="123.5848" fromJunction="3way_31" toJunction="3way_33"/>
<trip id="242" depart="124.09760000000001" fromJunction="4way_9" toJunction="4way_7"/>
<trip id="243" depart="124.61040000000001" fromJunction="4way_16" toJunction="3way_32"/>
<trip id="244" depart="125.12320000000001" fromJunction="3way_2" toJunction="4way_27"/>
<trip id="245" depart="125.63600000000001" fromJunction="3way_12" toJunction="3way_34"/>
<trip id="246" depart="126.14880000000001" fromJunction="3way_31" toJunction="3way_4"/>
<trip id="247" depart="126.6616" fromJunction="4way_14" toJunction="4way_26"/>
<trip id="248" depart="127.1744" fromJunction="4way_20" toJunction="4way_25"/>
<trip id="249" depart="127.6872" fromJunction="3way_32" toJunction="3way_23"/>
<trip id="250" depart="128.20000000000002" fromJunction="4way_10" toJunction="4way_14"/>
<trip id="251" depart="128.71280000000002" fromJunction="3way_33" toJunction="4way_13"/>
<trip id="252" depart="129.22560000000001" fromJunction="4way_20" toJunction="3way_1"/>
<trip id="253" depart="129.7384" fromJunction="3way_31" toJunction="3way_1"/>
<trip id="254" depart="130.2512" fromJunction="4way_16" toJunction="4way_7"/>
<trip id="255" depart="130.764" fromJunction="3way_24" toJunction="3way_3"/>
<trip id="256" depart="131.2768" fromJunction="3way_32" toJunction="3way_1"/>
<trip id="257" depart="131.7896" fromJunction="3way_34" toJunction="4way_25"/>
<trip id="258" depart="132.3024" fromJunction="3way_4" toJunction="3way_23"/>
<trip id="259" depart="132.8152" fromJunction="4way_20" toJunction="4way_19"/>
<trip id="260" depart="133.328" fromJunction="4way_22" toJunction="4way_14"/>
<trip id="261" depart="133.8408" fromJunction="4way_8" toJunction="3way_1"/>
<trip id="262" depart="134.3536" fromJunction="4way_19" toJunction="4way_25"/>
<trip id="263" depart="134.8664" fromJunction="3way_1" toJunction="4way_22"/>
<trip id="264" depart="135.3792" fromJunction="4way_21" toJunction="4way_20"/>
<trip id="265" depart="135.892" fromJunction="3way_32" toJunction="4way_7"/>
<trip id="266" depart="136.40480000000002" fromJunction="3way_4" toJunction="4way_15"/>
<trip id="267" depart="136.91760000000002" fromJunction="4way_7" toJunction="3way_12"/>
<trip id="268" depart="137.43040000000002" fromJunction="3way_3" toJunction="4way_20"/>
<trip id="269" depart="137.94320000000002" fromJunction="3way_18" toJunction="3way_29"/>
<trip id="270" depart="138.45600000000002" fromJunction="4way_10" toJunction="4way_25"/>
<trip id="271" depart="138.96880000000002" fromJunction="3way_11" toJunction="4way_25"/>
<trip id="272" depart="139.48160000000001" fromJunction="4way_27" toJunction="4way_28"/>
<trip id="273" depart="139.9944" fromJunction="4way_16" toJunction="4way_7"/>
<trip id="274" depart="140.5072" fromJunction="4way_16" toJunction="4way_13"/>
<trip id="275" depart="141.02" fromJunction="4way_22" toJunction="4way_21"/>
<trip id="276" depart="141.5328" fromJunction="3way_2" toJunction="4way_16"/>
<trip id="277" depart="142.0456" fromJunction="3way_24" toJunction="3way_17"/>
<trip id="278" depart="142.5584" fromJunction="3way_33" toJunction="4way_22"/>
<trip id="279" depart="143.0712" fromJunction="4way_10" toJunction="3way_17"/>
<trip id="280" depart="143.584" fromJunction="4way_16" toJunction="3way_12"/>
<trip id="281" depart="144.0968" fromJunction="4way_14" toJunction="3way_17"/>
<trip id="282" depart="144.6096" fromJunction="3way_3" toJunction="3way_12"/>
<trip id="283" depart="145.1224" fromJunction="3way_29" toJunction="4way_20"/>
<trip id="284" depart="145.6352" fromJunction="4way_16" toJunction="3way_2"/>
<trip id="285" depart="146.148" fromJunction="4way_10" toJunction="4way_26"/>
<trip id="286" depart="146.66080000000002" fromJunction="4way_7" toJunction="4way_14"/>
<trip id="287" depart="147.17360000000002" fromJunction="4way_28" toJunction="3way_33"/>
<trip id="288" depart="147.68640000000002" fromJunction="3way_6" toJunction="3way_31"/>
<trip id="289" depart="148.19920000000002" fromJunction="4way_28" toJunction="3way_24"/>
<trip id="290" depart="148.71200000000002" fromJunction="3way_32" toJunction="3way_17"/>
<trip id="291" depart="149.22480000000002" fromJunction="3way_3" toJunction="4way_14"/>
<trip id="292" depart="149.73760000000001" fromJunction="3way_6" toJunction="4way_25"/>
<trip id="293" depart="150.2504" fromJunction="3way_29" toJunction="3way_33"/>
<trip id="294" depart="150.7632" fromJunction="3way_31" toJunction="4way_7"/>
<trip id="295" depart="151.276" fromJunction="3way_32" toJunction="3way_12"/>
<trip id="296" depart="151.7888" fromJunction="3way_11" toJunction="4way_28"/>
<trip id="297" depart="152.3016" fromJunction="3way_32" toJunction="3way_4"/>
<trip id="298" depart="152.8144" fromJunction="4way_14" toJunction="4way_19"/>
<trip id="299" depart="153.3272" fromJunction="4way_28" toJunction="3way_24"/>
<trip id="300" depart="153.84" fromJunction="4way_26" toJunction="3way_31"/>
<trip id="301" depart="154.3528" fromJunction="4way_21" toJunction="4way_8"/>
<trip id="302" depart="154.8656" fromJunction="4way_10" toJunction="4way_28"/>
<trip id="303" depart="155.3784" fromJunction="4way_20" toJunction="4way_9"/>
<trip id="304" depart="155.8912" fromJunction="3way_11" toJunction="3way_32"/>
<trip id="305" depart="156.404" fromJunction="3way_29" toJunction="3way_3"/>
<trip id="306" depart="156.91680000000002" fromJunction="4way_7" toJunction="3way_18"/>
<trip id="307" depart="157.42960000000002" fromJunction="4way_22" toJunction="4way_9"/>
<trip id="308" depart="157.94240000000002" fromJunction="4way_26" toJunction="4way_19"/>
<trip id="309" depart="158.45520000000002" fromJunction="4way_16" toJunction="4way_27"/>
<trip id="310" depart="158.96800000000002" fromJunction="3way_24" toJunction="4way_28"/>
<trip id="311" depart="159.48080000000002" fromJunction="3way_11" toJunction="3way_24"/>
<trip id="312" depart="159.99360000000001" fromJunction="3way_4" toJunction="4way_27"/>
<trip id="313" depart="160.5064" fromJunction="4way_19" toJunction="3way_6"/>
<trip id="314" depart="161.0192" fromJunction="3way_17" toJunction="3way_29"/>
<trip id="315" depart="161.532" fromJunction="3way_2" toJunction="4way_27"/>
<trip id="316" depart="162.0448" fromJunction="3way_4" toJunction="3way_6"/>
<trip id="317" depart="162.5576" fromJunction="4way_28" toJunction="3way_12"/>
<trip id="318" depart="163.0704" fromJunction="4way_27" toJunction="3way_18"/>
<trip id="319" depart="163.5832" fromJunction="3way_34" toJunction="3way_4"/>
<trip id="320" depart="164.096" fromJunction="3way_31" toJunction="4way_14"/>
<trip id="321" depart="164.6088" fromJunction="4way_8" toJunction="4way_20"/>
<trip id="322" depart="165.1216" fromJunction="3way_18" toJunction="3way_24"/>
<trip id="323" depart="165.6344" fromJunction="3way_3" toJunction="4way_25"/>
<trip id="324" depart="166.1472" fromJunction="4way_8" toJunction="4way_21"/>
<trip id="325" depart="166.66000000000003" fromJunction="4way_13" toJunction="4way_26"/>
<trip id="326" depart="167.17280000000002" fromJunction="3way_24" toJunction="3way_4"/>
<trip id="327" depart="167.68560000000002" fromJunction="3way_32" toJunction="3way_24"/>
<trip id="328" depart="168.19840000000002" fromJunction="4way_26" toJunction="3way_1"/>
<trip id="329" depart="168.71120000000002" fromJunction="4way_25" toJunction="3way_4"/>
<trip id="330" depart="169.22400000000002" fromJunction="4way_8" toJunction="4way_20"/>
<trip id="331" depart="169.73680000000002" fromJunction="3way_4" toJunction="4way_22"/>
<trip id="332" depart="170.24960000000002" fromJunction="3way_1" toJunction="4way_27"/>
<trip id="333" depart="170.7624" fromJunction="3way_24" toJunction="4way_13"/>
<trip id="334" depart="171.2752" fromJunction="3way_31" toJunction="4way_7"/>
<trip id="335" depart="171.788" fromJunction="3way_1" toJunction="3way_23"/>
<trip id="336" depart="172.3008" fromJunction="4way_21" toJunction="4way_7"/>
<trip id="337" depart="172.8136" fromJunction="3way_29" toJunction="3way_31"/>
<trip id="338" depart="173.3264" fromJunction="3way_4" toJunction="3way_29"/>
<trip id="339" depart="173.8392" fromJunction="3way_3" toJunction="3way_34"/>
<trip id="340" depart="174.352" fromJunction="4way_27" toJunction="3way_3"/>
<trip id="341" depart="174.8648" fromJunction="4way_13" toJunction="3way_17"/>
<trip id="342" depart="175.3776" fromJunction="3way_12" toJunction="4way_9"/>
<trip id="343" depart="175.8904" fromJunction="3way_23" toJunction="3way_11"/>
<trip id="344" depart="176.4032" fromJunction="4way_7" toJunction="3way_18"/>
<trip id="345" depart="176.91600000000003" fromJunction="4way_15" toJunction="3way_31"/>
<trip id="346" depart="177.42880000000002" fromJunction="4way_16" toJunction="4way_9"/>
<trip id="347" depart="177.94160000000002" fromJunction="4way_10" toJunction="3way_1"/>
<trip id="348" depart="178.45440000000002" fromJunction="4way_10" toJunction="3way_24"/>
<trip id="349" depart="178.96720000000002" fromJunction="4way_28" toJunction="4way_20"/>
<trip id="350" depart="179.48000000000002" fromJunction="3way_31" toJunction="4way_9"/>
<trip id="351" depart="179.99280000000002" fromJunction="3way_24" toJunction="4way_7"/>
<trip id="352" depart="180.50560000000002" fromJunction="3way_34" toJunction="3way_31"/>
<trip id="353" depart="181.0184" fromJunction="4way_14" toJunction="3way_6"/>
<trip id="354" depart="181.5312" fromJunction="4way_7" toJunction="3way_34"/>
<trip id="355" depart="182.044" fromJunction="3way_17" toJunction="3way_4"/>
<trip id="356" depart="182.5568" fromJunction="4way_28" toJunction="3way_2"/>
<trip id="357" depart="183.0696" fromJunction="3way_17" toJunction="3way_1"/>
<trip id="358" depart="183.5824" fromJunction="3way_3" toJunction="4way_25"/>
<trip id="359" depart="184.0952" fromJunction="4way_26" toJunction="4way_10"/>
<trip id="360" depart="184.608" fromJunction="4way_7" toJunction="4way_22"/>
<trip id="361" depart="185.1208" fromJunction="4way_13" toJunction="3way_33"/>
<trip id="362" depart="185.6336" fromJunction="4way_7" toJunction="4way_16"/>
<trip id="363" depart="186.1464" fromJunction="4way_10" toJunction="3way_34"/>