<routes xmlns:xsi="http://www.w3.org/2001/XMLSchema-instance" xsi:noNamespaceSchemaLocation="http://sumo.dlr.de/xsd/routes_file.xsd">
<trip id="0" depart="0.0" fromJunction="4way_20" toJunction="4way_13"/>
<trip id="1" depart="0.5555" fromJunction="4way_13" toJunction="4way_25"/>
<trip id="2" depart="1.111" fromJunction="4way_8" toJunction="3way_18"/>
<trip id="3" depart="1.6665" fromJunction="4way_10" toJunction="3way_12"/>
<trip id="4" depart="2.222" fromJunction="3way_24" toJunction="4way_22"/>
<trip id="5" depart="2.7775" fromJunction="4way_7" toJunction="4way_15"/>
<trip id="6" depart="3.333" fromJunction="4way_16" toJunction="4way_19"/>
<trip id="7" depart="3.8885" fromJunction="4way_21" toJunction="3way_1"/>
<trip id="8" depart="4.444" fromJunction="4way_27" toJunction="4way_9"/>
<trip id="9" depart="4.9995" fromJunction="4way_15" toJunction="4way_28"/>
<trip id="10" depart="5.555" fromJunction="4way_9" toJunction="3way_12"/>
<trip id="11" depart="6.1105" fromJunction="4way_8" toJunction="3way_4"/>
<trip id="12" depart="6.666" fromJunction="4way_22" toJunction="3way_11"/>
<trip id="13" depart="7.2215" fromJunction="3way_18" toJunction="4way_7"/>
<trip id="14" depart="7.777" fromJunction="4way_9" toJunction="3way_34"/>
<trip id="15" depart="8.3325" fromJunction="4way_19" toJunction="3way_12"/>
<trip id="16" depart="8.888" fromJunction="4way_25" toJunction="3way_1"/>
<trip id="17" depart="9.4435" fromJunction="4way_14" toJunction="4way_22"/>
<trip id="18" depart="9.999" fromJunction="3way_18" toJunction="3way_31"/>
<trip id="19" depart="10.554499999999999" fromJunction="3way_2" toJunction="4way_20"/>
<trip id="20" depart="11.11" fromJunction="3way_11" toJunction="3way_23"/>
<trip id="21" depart="11.6655" fromJunction="3way_31" toJunction="3way_32"/>
<trip id="22" depart="12.221" fromJunction="3way_12" toJunction="4way_19"/>
<trip id="23" depart="12.7765" fromJunction="3way_4" toJunction="4way_28"/>
<trip id="24" depart="13.332" fromJunction="3way_17" toJunction="3way_23"/>
<trip id="25" depart="13.8875" fromJunction="3way_34" toJunction="4way_8"/>
<trip id="26" depart="14.443" fromJunction="3way_29" toJunction="3way_12"/>
<trip id="27" depart="14.9985" fromJunction="3way_4" toJunction="3way_17"/>
<trip id="28" depart="15.554" fromJunction="3way_11" toJunction="4way_14"/>
<trip id="29" depart="16.1095" fromJunction="3way_31" toJunction="3way_23"/>
<trip id="30" depart="16.665" fromJunction="3way_4" toJunction="4way_21"/>
<trip id="31" depart="17.2205" fromJunction="3way_4" toJunction="4way_21"/>
<trip id="32" depart="17.776" fromJunction="3way_12" toJunction="4way_28"/>
<trip id="33" depart="18.3315" fromJunction="4way_25" toJunction="4way_28"/>
<trip id="34" depart="18.887" fromJunction="3way_2" toJunction="4way_26"/>
<trip id="35" depart="19.4425" fromJunction="3way_4" toJunction="3way_33"/>
<trip id="36" depart="19.998" fromJunction="3way_4" toJunction="3way_33"/>
<trip id="37" depart="20.5535" fromJunction="3way_18" toJunction="3way_32"/>
<trip id="38" depart="21.108999999999998" fromJunction="4way_20" toJunction="3way_3"/>
<trip id="39" depart="21.6645" fromJunction="3way_34" toJunction="4way_19"/>
<trip id="40" depart="22.22" fromJunction="3way_4" toJunction="4way_7"/>
<trip id="41" depart="22.7755" fromJunction="4way_16" toJunction="4way_19"/>
<trip id="42" depart="23.331" fromJunction="4way_14" toJunction="3way_32"/>
<trip id="43" depart="23.886499999999998" fromJunction="4way_20" toJunction="3way_11"/>
<trip id="44" depart="24.442" fromJunction="3way_17" toJunction="3way_33"/>
<trip id="45" depart="24.9975" fromJunction="3way_1" toJunction="4way_19"/>
<trip id="46" depart="25.553" fromJunction="3way_1" toJunction="4way_21"/>
<trip id="47" depart="26.1085" fromJunction="3way_34" toJunction="4way_14"/>
<trip id="48" depart="26.664" fromJunction="4way_22" toJunction="4way_26"/>
<trip id="49" depart="27.2195" fromJunction="4way_19" toJunction="3way_29"/>
<trip id="50" depart="27.775" fromJunction="4way_22" toJunction="3way_29"/>
<trip id="51" depart="28.3305" fromJunction="4way_27" toJunction="3way_12"/>
<trip id="52" depart="28.886" fromJunction="3way_33" toJunction="4way_20"/>
<trip id="53" depart="29.4415" fromJunction="3way_24" toJunction="4way_21"/>
<trip id="54" depart="29.997" fromJunction="4way_19" toJunction="4way_10"/>
<trip id="55" depart="30.5525" fromJunction="4way_20" toJunction="4way_10"/>
<trip id="56" depart="31.108" fromJunction="4way_7" toJunction="4way_26"/>
<trip id="57" depart="31.6635" fromJunction="4way_8" toJunction="4way_22"/>
<trip id="58" depart="32.219" fromJunction="4way_25" toJunction="3way_18"/>
<trip id="59" depart="32.774499999999996" fromJunction="3way_33" toJunction="3way_1"/>
<trip id="60" depart="33.33" fromJunction="3way_33" toJunction="4way_14"/>
<trip id="61" depart="33.8855" fromJunction="3way_18" toJunction="4way_25"/>
<trip id="62" depart="34.441" fromJunction="3way_33" toJunction="3way_11"/>
<trip id="63" depart="34.9965" fromJunction="4way_8" toJunction="4way_19"/>
<trip id="64" depart="35.552" fromJunction="3way_18" toJunction="4way_8"/>
<trip id="65" depart="36.1075" fromJunction="3way_31" toJunction="4way_10"/>
<trip id="66" depart="36.663" fromJunction="4way_10" toJunction="3way_18"/>
<trip id="67" depart="37.2185" fromJunction="4way_20" toJunction="4way_15"/>
<trip id="68" depart="37.774" fromJunction="4way_16" toJunction="3way_4"/>
<trip id="69" depart="38.3295" fromJunction="4way_28" toJunction="4way_20"/>
<trip id="70" depart="38.885" fromJunction="4way_27" toJunction="3way_11"/>
<trip id="71" depart="39.4405" fromJunction="4way_25" toJunction="3way_17"/>
<trip id="72" depart="39.996" fromJunction="4way_27" toJunction="3way_4"/>
<trip id="73" depart="40.5515" fromJunction="4way_19" toJunction="4way_15"/>
<trip id="74" depart="41.107" fromJunction="3way_3" toJunction="3way_18"/>
<trip id="75" depart="41.6625" fromJunction="3way_12" toJunction="4way_20"/>
<trip id="76" depart="42.217999999999996" fromJunction="4way_27" toJunction="4way_26"/>
<trip id="77" depart="42.7735" fromJunction="4way_27" toJunction="4way_28"/>
<trip id="78" depart="43.329" fromJunction="3way_31" toJunction="3way_1"/>
<trip id="79" depart="43.8845" fromJunction="3way_17" toJunction="4way_26"/>
<trip id="80" depart="44.44" fromJunction="3way_2" toJunction="4way_7"/>
<trip id="81" depart="44.9955" fromJunction="3way_1" toJunction="3way_23"/>
<trip id="82" depart="45.551" fromJunction="3way_29" toJunction="4way_15"/>
<trip id="83" depart="46.1065" fromJunction="4way_16" toJunction="3way_31"/>
<trip id="84" depart="46.662" fromJunction="3way_2" toJunction="4way_20"/>
<trip id="85" depart="47.2175" fromJunction="4way_25" toJunction="3way_17"/>
<trip id="86" depart="47.772999999999996" fromJunction="3way_29" toJunction="4way_19"/>
<trip id="87" depart="48.3285" fromJunction="4way_25" toJunction="4way_16"/>
<trip id="88" depart="48.884" fromJunction="4way_19" toJunction="4way_13"/>
<trip id="89" depart="49.4395" fromJunction="3way_33" toJunction="4way_26"/>
<trip id="90" depart="49.995" fromJunction="3way_23" toJunction="3way_24"/>
<trip id="91" depart="50.5505" fromJunction="4way_22" toJunction="3way_17"/>
<trip id="92" depart="51.106" fromJunction="3way_6" toJunction="4way_26"/>
<trip id="93" depart="51.6615" fromJunction="3way_34" toJunction="3way_29"/>
<trip id="94" depart="52.217" fromJunction="3way_18" toJunction="3way_2"/>
<trip id="95" depart="52.7725" fromJunction="4way_20" toJunction="3way_33"/>
<trip id="96" depart="53.328" fromJunction="3way_17" toJunction="3way_24"/>
<trip id="97" depart="53.8835" fromJunction="3way_3" toJunction="3way_1"/>
<trip id="98" depart="54.439" fromJunction="3way_12" toJunction="4way_14"/>
<trip id="99" depart="54.9945" fromJunction="4way_10" toJunction="4way_13"/>
<trip id="100" depart="55.55" fromJunction="3way_23" toJunction="4way_28"/>
<trip id="101" depart="56.1055" fromJunction="3way_34" toJunction="4way_14"/>
<trip id="102" depart="56.661" fromJunction="4way_9" toJunction="3way_1"/>
<trip id="103" depart="57.216499999999996" fromJunction="3way_24" toJunction="3way_32"/>
<trip id="104" depart="57.772" fromJunction="4way_21" toJunction="4way_19"/>
<trip id="105" depart="58.3275" fromJunction="4way_27" toJunction="4way_8"/>
<trip id="106" depart="58.883" fromJunction="4way_15" toJunction="3way_34"/>
<trip id="107" depart="59.4385" fromJunction="4way_22" toJunction="3way_17"/>
<trip id="108" depart="59.994" fromJunction="3way_23" toJunction="4way_14"/>
<trip id="109" depart="60.5495" fromJunction="4way_26" toJunction="4way_22"/>
<trip id="110" depart="61.105" fromJunction="3way_23" toJunction="3way_34"/>
<trip id="111" depart="61.6605" fromJunction="3way_1" toJunction="4way_7"/>
<trip id="112" depart="62.216" fromJunction="3way_18" toJunction="3way_23"/>
<trip id="113" depart="62.771499999999996" fromJunction="3way_12" toJunction="3way_31"/>
<trip id="114" depart="63.327" fromJunction="4way_19" toJunction="3way_34"/>
<trip id="115" depart="63.8825" fromJunction="3way_4" toJunction="4way_27"/>
<trip id="116" depart="64.438" fromJunction="3way_11" toJunction="4way_7"/>
<trip id="117" depart="64.9935" fromJunction="3way_24" toJunction="4way_20"/>
<trip id="118" depart="65.54899999999999" fromJunction="3way_17" toJunction="4way_19"/>
<trip id="119" depart="66.1045" fromJunction="3way_6" toJunction="3way_11"/>
<trip id="120" depart="66.66" fromJunction="4way_22" toJunction="3way_31"/>
<trip id="121" depart="67.2155" fromJunction="4way_26" toJunction="4way_9"/>
<trip id="122" depart="67.771" fromJunction="3way_3" toJunction="4way_10"/>
<trip id="123" depart="68.3265" fromJunction="4way_19" toJunction="4way_13"/>
<trip id="124" depart="68.882" fromJunction="3way_33" toJunction="4way_22"/>
<trip id="125" depart="69.4375" fromJunction="3way_4" toJunction="3way_29"/>
<trip id="126" depart="69.993" fromJunction="4way_16" toJunction="3way_1"/>
<trip id="127" depart="70.5485" fromJunction="4way_15" toJunction="4way_14"/>
<trip id="128" depart="71.104" fromJunction="4way_19" toJunction="3way_33"/>
<trip id="129" depart="71.6595" fromJunction="3way_6" toJunction="3way_3"/>
<trip id="130" depart="72.215" fromJunction="4way_10" toJunction="4way_28"/>
<trip id="131" depart="72.7705" fromJunction="4way_22" toJunction="3way_32"/>
<trip id="132" depart="73.326" fromJunction="4way_22" toJunction="3way_29"/>
<trip id="133" depart="73.8815" fromJunction="4way_15" toJunction="4way_22"/>
<trip id="134" depart="74.437" fromJunction="4way_27" toJunction="4way_8"/>
<trip id="135" depart="74.99249999999999" fromJunction="4way_27" toJunction="3way_33"/>
<trip id="136" depart="75.548" fromJunction="3way_1" toJunction="4way_25"/>
<trip id="137" depart="76.1035" fromJunction="3way_11" toJunction="3way_31"/>
<trip id="138" depart="76.659" fromJunction="3way_6" toJunction="4way_28"/>
<trip id="139" depart="77.2145" fromJunction="4way_8" toJunction="3way_6"/>
<trip id="140" depart="77.77" fromJunction="3way_11" toJunction="3way_31"/>
<trip id="141" depart="78.3255" fromJunction="3way_23" toJunction="4way_21"/>
<trip id="142" depart="78.881" fromJunction="3way_29" toJunction="4way_7"/>
<trip id="143" depart="79.4365" fromJunction="4way_27" toJunction="3way_4"/>
<trip id="144" depart="79.992" fromJunction="4way_22" toJunction="4way_28"/>
<trip id="145" depart="80.5475" fromJunction="4way_9" toJunction="4way_16"/>
<trip id="146" depart="81.103" fromJunction="3way_3" toJunction="3way_32"/>
<trip id="147" depart="81.6585" fromJunction="3way_29" toJunction="3way_18"/>
<trip id="148" depart="82.214" fromJunction="3way_2" toJunction="3way_11"/>
<trip id="149" depart="82.7695" fromJunction="3way_1" toJunction="4way_26"/>
<trip id="150" depart="83.325" fromJunction="3way_11" toJunction="4way_9"/>
<trip id="151" depart="83.8805" fromJunction="3way_29" toJunction="4way_14"/>
<trip id="152" depart="84.43599999999999" fromJunction="4way_13" toJunction="3way_18"/>
<trip id="153" depart="84.9915" fromJunction="4way_26" toJunction="4way_27"/>
<trip id="154" depart="85.547" fromJunction="3way_11" toJunction="3way_34"/>
<trip id="155" depart="86.10249999999999" fromJunction="3way_33" toJunction="3way_2"/>
<trip id="156" depart="86.658" fromJunction="3way_12" toJunction="3way_34"/>
<trip id="157" depart="87.2135" fromJunction="4way_20" toJunction="4way_14"/>
<trip id="158" depart="87.769" fromJunction="3way_24" toJunction="3way_33"/>
<trip id="159" depart="88.3245" fromJunction="4way_15" toJunction="3way_17"/>
<trip id="160" depart="88.88" fromJunction="4way_20" toJunction="3way_2"/>
<trip id="161" depart="89.4355" fromJunction="3way_31" toJunction="3way_34"/>
<trip id="162" depart="89.991" fromJunction="3way_34" toJunction="4way_19"/>
<trip id="163" depart="90.5465" fromJunction="3way_23" toJunction="3way_31"/>
<trip id="164" depart="91.102" fromJunction="3way_2" toJunction="3way_12"/>
<trip id="165" depart="91.6575" fromJunction="3way_3" toJunction="4way_15"/>
<trip id="166" depart="92.213" fromJunction="3way_33" toJunction="4way_7"/>
<trip id="167" depart="92.7685" fromJunction="4way_22" toJunction="4way_19"/>
<trip id="168" depart="93.324" fromJunction="3way_2" toJunction="4way_8"/>
<trip id="169" depart="93.8795" fromJunction="4way_7" toJunction="3way_18"/>
<trip id="170" depart="94.435" fromJunction="4way_14" toJunction="4way_13"/>
<trip id="171" depart="94.9905" fromJunction="3way_11" toJunction="3way_34"/>
<trip id="172" depart="95.54599999999999" fromJunction="4way_22" toJunction="3way_24"/>
<trip id="173" depart="96.1015" fromJunction="4way_10" toJunction="3way_17"/>
<trip id="174" depart="96.657" fromJunction="3way_12" toJunction="4way_13"/>
<trip id="175" depart="97.2125" fromJunction="3way_12" toJunction="4way_10"/>
<trip id="176" depart="97.768" fromJunction="3way_24" toJunction="4way_26"/>
<trip id="177" depart="98.3235" fromJunction="4way_20" toJunction="4way_10"/>
<trip id="178" depart="98.879" fromJunction="3way_32" toJunction="4way_20"/>
<trip id="179" depart="99.4345" fromJunction="4way_8" toJunction="4way_9"/>
<trip id="180" depart="99.99" fromJunction="3way_17" toJunction="3way_29"/>
<trip id="181" depart="100.5455" fromJunction="4way_22" toJunction="4way_15"/>
<trip id="182" depart="101.101" fromJunction="4way_19" toJunction="3way_12"/>
<trip id="183" depart="101.6565" fromJunction="3way_12" toJunction="4way_27"/>
<trip id="184" depart="102.212" fromJunction="4way_19" toJunction="4way_22"/>
<trip id="185" depart="102.7675" fromJunction="4way_16" toJunction="4way_21"/>
<trip id="186" depart="103.323" fromJunction="3way_17" toJunction="4way_21"/>
<trip id="187" depart="103.8785" fromJunction="3way_24" toJunction="4way_8"/>
<trip id="188" depart="104.434" fromJunction="3way_18" toJunction="3way_3"/>
<trip id="189" depart="104.98949999999999" fromJunction="4way_27" toJunction="3way_34"/>
<trip id="190" depart="105.545" fromJunction="4way_22" toJunction="3way_2"/>
<trip id="191" depart="106.1005" fromJunction="3way_17" toJunction="3way_1"/>
<trip id="192" depart="106.656" fromJunction="4way_16" toJunction="3way_24"/>
<trip id="193" depart="107.2115" fromJunction="4way_22" toJunction="3way_4"/>
<trip id="194" depart="107.767" fromJunction="3way_12" toJunction="4way_27"/>
<trip id="195" depart="108.3225" fromJunction="3way_29" toJunction="3way_32"/>
<trip id="196" depart="108.878" fromJunction="3way_2" toJunction="4way_25"/>
<trip id="197" depart="109.4335" fromJunction="3way_18" toJunction="3way_1"/>
<trip id="198" depart="109.989" fromJunction="3way_34" toJunction="3way_3"/>
<trip id="199" depart="110.5445" fromJunction="3way_34" toJunction="3way_29"/>
<trip id="200" depart="111.1" fromJunction="3way_1" toJunction="3way_11"/>
<trip id="201" depart="111.6555" fromJunction="4way_25" toJunction="3way_4"/>
<trip id="202" depart="112.211" fromJunction="3way_17" toJunction="3way_18"/>
<trip id="203" depart="112.7665" fromJunction="3way_6" toJunction="4way_8"/>
<trip id="204" depart="113.322" fromJunction="3way_3" toJunction="4way_28"/>
<trip id="205" depart="113.8775" fromJunction="3way_33" toJunction="4way_15"/>
<trip id="206" depart="114.43299999999999" fromJunction="4way_14" toJunction="3way_29"/>
<trip id="207" depart="114.9885" fromJunction="4way_14" toJunction="3way_29"/>
<trip id="208" depart="115.544" fromJunction="3way_18" toJunction="4way_7"/>
<trip id="209" depart="116.09949999999999" fromJunction="3way_33" toJunction="4way_13"/>
<trip id="210" depart="116.655" fromJunction="3way_18" toJunction="4way_20"/>
<trip id="211" depart="117.2105" fromJunction="4way_21" toJunction="3way_31"/>
<trip id="212" depart="117.766" fromJunction="3way_2" toJunction="4way_16"/>
<trip id="213" depart="118.3215" fromJunction="3way_31" toJunction="3way_29"/>
<trip id="214" depart="118.877" fromJunction="4way_28" toJunction="4way_21"/>
<trip id="215" depart="119.4325" fromJunction="4way_10" toJunction="4way_28"/>
<trip id="216" depart="119.988" fromJunction="4way_28" toJunction="3way_33"/>
<trip id="217" depart="120.5435" fromJunction="3way_4" toJunction="3way_29"/>
<trip id="218" depart="121.099" fromJunction="3way_29" toJunction="4way_22"/>
<trip id="219" depart="121.6545" fromJunction="3way_2" toJunction="4way_20"/>
<trip id="220" depart="122.21" fromJunction="4way_10" toJunction="4way_26"/>
<trip id="221" depart="122.7655" fromJunction="3way_24" toJunction="3way_34"/>
<trip id="222" depart="123.321" fromJunction="4way_26" toJunction="3way_31"/>
<trip id="223" depart="123.8765" fromJunction="3way_17" toJunction="3way_29"/>
<trip id="224" depart="124.432" fromJunction="3way_33" toJunction="3way_12"/>
<trip id="225" depart="124.9875" fromJunction="3way_29" toJunction="4way_21"/>
<trip id="226" depart="125.54299999999999" fromJunction="4way_22" toJunction="4way_7"/>
<trip id="227" depart="126.0985" fromJunction="4way_27" toJunction="4way_8"/>
<trip id="228" depart="126.654" fromJunction="4way_9" toJunction="4way_22"/>
<trip id="229" depart="127.2095" fromJunction="4way_22" toJunction="4way_20"/>
<trip id="230" depart="127.765" fromJunction="3way_12" toJunction="4way_28"/>
<trip id="231" depart="128.3205" fromJunction="3way_33" toJunction="3way_3"/>
<trip id="232" depart="128.876" fromJunction="3way_18" toJunction="3way_11"/>
<trip id="233" depart="129.4315" fromJunction="4way_25" toJunction="3way_11"/>
<trip id="234" depart="129.987" fromJunction="4way_10" toJunction="3way_24"/>
<trip id="235" depart="130.5425" fromJunction="4way_13" toJunction="4way_22"/>
<trip id="236" depart="131.09799999999998" fromJunction="4way_19" toJunction="3way_34"/>
<trip id="237" depart="131.6535" fromJunction="3way_18" toJunction="4way_10"/>
<trip id="238" depart="132.209" fromJunction="3way_34" toJunction="4way_13"/>
<trip id="239" depart="132.7645" fromJunction="3way_24" toJunction="3way_12"/>
<trip id="240" depart="133.32" fromJunction="4way_7" toJunction="3way_29"/>
<trip id="241" depart="133.8755" fromJunction="3way_31" toJunction="3way_33"/>
<trip id="242" depart="134.431" fromJunction="4way_9" toJunction="4way_7"/>
<trip id="243" depart="134.9865" fromJunction="4way_16" toJunction="3way_32"/>
<trip id="244" depart="135.542" fromJunction="3way_2" toJunction="4way_27"/>
<trip id="245" depart="136.0975" fromJunction="3way_12" toJunction="3way_34"/>
<trip id="246" depart="136.653" fromJunction="3way_31" toJunction="3way_4"/>
<trip id="247" depart="137.2085" fromJunction="4way_14" toJunction="4way_26"/>
<trip id="248" depart="137.764" fromJunction="4way_20" toJunction="4way_25"/>
<trip id="249" depart="138.3195" fromJunction="3way_32" toJunction="3way_23"/>
<trip id="250" depart="138.875" fromJunction="4way_10" toJunction="4way_14"/>
<trip id="251" depart="139.4305" fromJunction="3way_33" toJunction="4way_13"/>
<trip id="252" depart="139.986" fromJunction="4way_20" toJunction="3way_1"/>
<trip id="253" depart="140.54149999999998" fromJunction="3way_31" toJunction="3way_1"/>
<trip id="254" depart="141.097" fromJunction="4way_16" toJunction="4way_7"/>
<trip id="255" depart="141.6525" fromJunction="3way_24" toJunction="3way_3"/>
<trip id="256" depart="142.208" fromJunction="3way_32" toJunction="3way_1"/>
<trip id="257" depart="142.7635" fromJunction="3way_34" toJunction="4way_25"/>
<trip id="258" depart="143.319" fromJunction="3way_4" toJunction="3way_23"/>
<trip id="259" depart="143.8745" fromJunction="4way_20" toJunction="4way_19"/>
<trip id="260" depart="144.43" fromJunction="4way_22" toJunction="4way_14"/>
<trip id="261" depart="144.9855" fromJunction="4way_8" toJunction="3way_1"/>
<trip id="262" depart="145.541" fromJunction="4way_19" toJunction="4way_25"/>
<trip id="263" depart="146.0965" fromJunction="3way_1" toJunction="4way_22"/>
<trip id="264" depart="146.652" fromJunction="4way_21" toJunction="4way_20"/>
<trip id="265" depart="147.2075" fromJunction="3way_32" toJunction="4way_7"/>
<trip id="266" depart="147.763" fromJunction="3way_4" toJunction="4way_15"/>
<trip id="267" depart="148.3185" fromJunction="4way_7" toJunction="3way_12"/>
<trip id="268" depart="148.874" fromJunction="3way_3" toJunction="4way_20"/>
<trip id="269" depart="149.4295" fromJunction="3way_18" toJunction="3way_29"/>
<trip id="270" depart="149.98499999999999" fromJunction="4way_10" toJunction="4way_25"/>
<trip id="271" depart="150.5405" fromJunction="3way_11" toJunction="4way_25"/>
<trip id="272" depart="151.096" fromJunction="4way_27" toJunction="4way_28"/>
<trip id="273" depart="151.6515" fromJunction="4way_16" toJunction="4way_7"/>
<trip id="274" depart="152.207" fromJunction="4way_16" toJunction="4way_13"/>
<trip id="275" depart="152.7625" fromJunction="4way_22" toJunction="4way_21"/>
<trip id="276" depart="153.318" fromJunction="3way_2" toJunction="4way_16"/>
<trip id="277" depart="153.8735" fromJunction="3way_24" toJunction="3way_17"/>
<trip id="278" depart="154.429" fromJunction="3way_33" toJunction="4way_22"/>
<trip id="279" depart="154.9845" fromJunction="4way_10" toJunction="3way_17"/>
<trip id="280" depart="155.54" fromJunction="4way_16" toJunction="3way_12"/>
<trip id="281" depart="156.0955" fromJunction="4way_14" toJunction="3way_17"/>
<trip id="282" depart="156.651" fromJunction="3way_3" toJunction="3way_12"/>
<trip id="283" depart="157.2065" fromJunction="3way_29" toJunction="4way_20"/>
<trip id="284" depart="157.762" fromJunction="4way_16" toJunction="3way_2"/>
<trip id="285" depart="158.3175" fromJunction="4way_10" toJunction="4way_26"/>
<trip id="286" depart="158.873" fromJunction="4way_7" toJunction="4way_14"/>
<trip id="287" depart="159.42849999999999" fromJunction="4way_28" toJunction="3way_33"/>
<trip id="288" depart="159.984" fromJunction="3way_6" toJunction="3way_31"/>
<trip id="289" depart="160.5395" fromJunction="4way_28" toJunction="3way_24"/>
<trip id="290" depart="161.095" fromJunction="3way_32" toJunction="3way_17"/>
<trip id="291" depart="161.6505" fromJunction="3way_3" toJunction="4way_14"/>
<trip id="292" depart="162.206" fromJunction="3way_6" toJunction="4way_25"/>
<trip id="293" depart="162.7615" fromJunction="3way_29" toJunction="3way_33"/>
<trip id="294" depart="163.317" fromJunction="3way_31" toJunction="4way_7"/>
<trip id="295" depart="163.8725" fromJunction="3way_32" toJunction="3way_12"/>
<trip id="296" depart="164.428" fromJunction="3way_11" toJunction="4way_28"/>
<trip id="297" depart="164.9835" fromJunction="3way_32" toJunction="3way_4"/>
<trip id="298" depart="165.539" fromJunction="4way_14" toJunction="4way_19"/>
<trip id="299" depart="166.0945" fromJunction="4way_28" toJunction="3way_24"/>
<trip id="300" depart="166.65" fromJunction="4way_26" toJunction="3way_31"/>
<trip id="301" depart="167.2055" fromJunction="4way_21" toJunction="4way_8"/>
<trip id="302" depart="167.761" fromJunction="4way_10" toJunction="4way_28"/>
<trip id="303" depart="168.3165" fromJunction="4way_20" toJunction="4way_9"/>
<trip id="304" depart="168.87199999999999" fromJunction="3way_11" toJunction="3way_32"/>
<trip id="305" depart="169.4275" fromJunction="3way_29" toJunction="3way_3"/>
<trip id="306" depart="169.983" fromJunction="4way_7" toJunction="3way_18"/>
<trip id="307" depart="170.5385" fromJunction="4way_22" toJunction="4way_9"/>
<trip id="308" depart="171.094" fromJunction="4way_26" toJunction="4way_19"/>
<trip id="309" depart="171.6495" fromJunction="4way_16" toJunction="4way_27"/>
<trip id="310" depart="172.20499999999998" fromJunction="3way_24" toJunction="4way_28"/>
<trip id="311" depart="172.7605" fromJunction="3way_11" toJunction="3way_24"/>
<trip id="312" depart="173.316" fromJunction="3way_4" toJunction="4way_27"/>
<trip id="313" depart="173.8715" fromJunction="4way_19" toJunction="3way_6"/>
<trip id="314" depart="174.427" fromJunction="3way_17" toJunction="3way_29"/>
<trip id="315" depart="174.9825" fromJunction="3way_2" toJunction="4way_27"/>
<trip id="316" depart="175.538" fromJunction="3way_4" toJunction="3way_6"/>
<trip id="317" depart="176.0935" fromJunction="4way_28" toJunction="3way_12"/>
<trip id="318" depart="176.649" fromJunction="4way_27" toJunction="3way_18"/>
<trip id="319" depart="177.2045" fromJunction="3way_34" toJunction="3way_4"/>
<trip id="320" depart="177.76" fromJunction="3way_31" toJunction="4way_14"/>
<trip id="321" depart="178.3155" fromJunction="4way_8" toJunction="4way_20"/>
<trip id="322" depart="178.871" fromJunction="3way_18" toJunction="3way_24"/>
<trip id="323" depart="179.4265" fromJunction="3way_3" toJunction="4way_25"/>
<trip id="324" depart="179.982" fromJunction="4way_8" toJunction="4way_21"/>
<trip id="325" depart="180.5375" fromJunction="4way_13" toJunction="4way_26"/>
<trip id="326" depart="181.093" fromJunction="3way_24" toJunction="3way_4"/>
<trip id="327" depart="181.64849999999998" fromJunction="3way_32" toJunction="3way_24"/>
<trip id="328" depart="182.204" fromJunction="4way_26" toJunction="3way_1"/>
<trip id="329" depart="182.7595" fromJunction="4way_25" toJunction="3way_4"/>
<trip id="330" depart="183.315" fromJunction="4way_8" toJunction="4way_20"/>
<trip id="331" depart="183.8705" fromJunction="3way_4" toJunction="4way_22"/>
<trip id="332" depart="184.426" fromJunction="3way_1" toJunction="4way_27"/>
<trip id="333" depart="184.9815" fromJunction="3way_24" toJunction="4way_13"/>
<trip id="334" depart="185.537" fromJunction="3way_31" toJunction="4way_7"/>
<trip id="335" depart="186.0925" fromJunction="3way_1" toJunction="3way_23"/>
<trip id="336" depart="186.648" fromJunction="4way_21" toJunction="4way_7"/>
<trip id="337" depart="187.2035" fromJunction="3way_29" toJunction="3way_31"/>
<trip id="338" depart="187.759" fromJunction="3way_4" toJunction="3way_29"/>
<trip id="339" depart="188.3145" fromJunction="3way_3" toJunction="3way_34"/>
<trip id="340" depart="188.87" fromJunction="4way_27" toJunction="3way_3"/>
<trip id="341" depart="189.4255" fromJunction="4way_13" toJunction="3way_17"/>
<trip id="342" depart="189.981" fromJunction="3way_12" toJunction="4way_9"/>
<trip id="343" depart="190.5365" fromJunction="3way_23" toJunction="3way_11"/>
<trip id="344" depart="191.09199999999998" fromJunction="4way_7" toJunction="3way_18"/>
<trip id="345" depart="191.6475" fromJunction="4way_15" toJunction="3way_31"/>
<trip id="346" depart="192.203" fromJunction="4way_16" toJunction="4way_9"/>
<trip id="347" depart="192.7585" fromJunction="4way_10" toJunction="3way_1"/>
<trip id="348" depart="193.314" fromJunction="4way_10" toJunction="3way_24"/>
<trip id="349" depart="193.8695" fromJunction="4way_28" toJunction="4way_20"/>
<trip id="350" depart="194.425" fromJunction="3way_31" toJunction="4way_9"/>
<trip id="351" depart="194.9805" fromJunction="3way_24" toJunction="4way_7"/>
<trip id="352" depart="195.536" fromJunction="3way_34" toJunction="3way_31"/>
<trip id="353" depart="196.0915" fromJunction="4way_14" toJunction="3way_6"/>
<trip id="354" depart="196.647" fromJunction="4way_7" toJunction="3way_34"/>
<trip id="355" depart="197.2025" fromJunction="3way_17" toJunction="3way_4"/>
<trip id="356" depart="197.758" fromJunction="4way_28" toJunction="3way_2"/>
<trip id="357" depart="198.3135" fromJunction="3way_17" toJunction="3way_1"/>
<trip id="358" depart="198.869" fromJunction="3way_3" toJunction="4way_25"/>
<trip id="359" depart="199.4245" fromJunction="4way_26" toJunction="4way_10"/>
<trip id="360" depart="199.98" fromJunction="4way_7" toJunction="4way_22"/>
<trip id="361" depart="200.53549999999998" fromJunction="4way_13" toJunction="3way_33"/>
<trip id="362" depart="201.091" fromJunction="4way_7" toJunction="4way_16"/>
<trip id="363" depart="201.6465" fromJunction="4way_10" toJunction="3way_34"/>
<trip id="364" depart="202.202" fromJunction="3way_1" toJunction="3way_31"/>
<trip id="365" depart="202.7575" fromJunction="3way_32" toJunction="3way_29"/>
<trip id="366" depart="203.313" fromJunction="3way_12" toJunction="4way_27"/>
<trip id="367" depart="203.8685" fromJunction="3way_32" toJunction="3way_12"/>
<trip id="368" depart="204.424" fromJunction="4way_22" toJunction="4way_10"/>
<trip id="369" depart="204.9795" fromJunction="3way_24" toJunction="4way_28"/>
<trip id="370" depart="205.535" fromJunction="4way_15" toJunction="4way_22"/>
<trip id="371" depart="206.0905" fromJunction="3way_29" toJunction="4way_14"/>
<trip id="372" depart="206.646" fromJunction="3way_17" toJunction="3way_23"/>
<trip id="373" depart="207.2015" fromJunction="3way_33" toJunction="4way_16"/>
<trip id="374" depart="207.757" fromJunction="3way_6" toJunction="3way_12"/>
<trip id="375" depart="208.3125" fromJunction="4way_27" toJunction="4way_9"/>
<trip id="376" depart="208.868" fromJunction="3way_18" toJunction="3way_11"/>
<trip id="377" depart="209.4235" fromJunction="3way_17" toJunction="3way_4"/>
<trip id="378" depart="209.97899999999998" fromJunction="3way_3" toJunction="3way_33"/>
<trip id="379" depart="210.5345" fromJunction="3way_4" toJunction="3way_18"/>
<trip id="380" depart="211.09" fromJunction="3way_29" toJunction="4way_19"/>
<trip id="381" depart="211.6455" fromJunction="3way_4" toJunction="4way_25"/>
<trip id="382" depart="212.201" fromJunction="4way_16" toJunction="4way_28"/>