<routes xmlns:xsi="http://www.w3.org/2001/XMLSchema-instance" xsi:noNamespaceSchemaLocation="http://sumo.dlr.de/xsd/routes_file.xsd">
<trip id="0" depart="0.0" fromJunction="4way_12" toJunction="4way_26"/>
<trip id="1" depart="0.3125" fromJunction="4way_26" toJunction="4way_11"/>
<trip id="2" depart="0.625" fromJunction="4way_27" toJunction="4way_17"/>
<trip id="3" depart="0.9375" fromJunction="4way_53" toJunction="4way_25"/>
<trip id="4" depart="1.25" fromJunction="3way_8" toJunction="4way_38"/>
<trip id="5" depart="1.5625" fromJunction="4way_18" toJunction="4way_52"/>
<trip id="6" depart="1.875" fromJunction="4way_22" toJunction="4way_42"/>
<trip id="7" depart="2.1875" fromJunction="3way_6" toJunction="3way_5"/>
<trip id="8" depart="2.5" fromJunction="4way_21" toJunction="3way_2"/>
<trip id="9" depart="2.8125" fromJunction="4way_45" toJunction="4way_44"/>
<trip id="10" depart="3.125" fromJunction="4way_52" toJunction="4way_46"/>
<trip id="11" depart="3.4375" fromJunction="4way_44" toJunction="4way_33"/>
<trip id="12" depart="3.75" fromJunction="4way_27" toJunction="3way_23"/>
<trip id="13" depart="4.0625" fromJunction="4way_30" toJunction="3way_31"/>
<trip id="14" depart="4.375" fromJunction="4way_9" toJunction="4way_18"/>
<trip id="15" depart="4.6875" fromJunction="4way_44" toJunction="3way_59"/>
<trip id="16" depart="5.0" fromJunction="4way_42" toJunction="4way_33"/>
<trip id="17" depart="5.3125" fromJunction="4way_19" toJunction="3way_2"/>
<trip id="18" depart="5.625" fromJunction="4way_19" toJunction="4way_11"/>
<trip id="19" depart="5.9375" fromJunction="4way_43" toJunction="4way_30"/>
<trip id="20" depart="6.25" fromJunction="4way_25" toJunction="3way_24"/>
<trip id="21" depart="6.5625" fromJunction="3way_4" toJunction="4way_51"/>
<trip id="22" depart="6.875" fromJunction="3way_23" toJunction="3way_62"/>
<trip id="23" depart="7.1875" fromJunction="3way_24" toJunction="3way_48"/>
<trip id="24" depart="7.5" fromJunction="4way_25" toJunction="4way_42"/>
<trip id="25" depart="7.8125" fromJunction="3way_15" toJunction="4way_54"/>
<trip id="26" depart="8.125" fromJunction="3way_39" toJunction="3way_62"/>
<trip id="27" depart="8.4375" fromJunction="3way_59" toJunction="4way_35"/>
<trip id="28" depart="8.75" fromJunction="3way_60" toJunction="4way_33"/>
<trip id="29" depart="9.0625" fromJunction="3way_15" toJunction="3way_39"/>
<trip id="30" depart="9.375" fromJunction="3way_31" toJunction="4way_35"/>
<trip id="31" depart="9.6875" fromJunction="3way_16" toJunction="3way_55"/>
<trip id="32" depart="10.0" fromJunction="3way_6" toJunction="4way_21"/>
<trip id="33" depart="10.3125" fromJunction="3way_6" toJunction="4way_29"/>
<trip id="34" depart="10.625" fromJunction="4way_41" toJunction="4way_46"/>
<trip id="35" depart="10.9375" fromJunction="4way_11" toJunction="4way_46"/>
<trip id="36" depart="11.25" fromJunction="3way_3" toJunction="4way_28"/>
<trip id="37" depart="11.5625" fromJunction="3way_23" toJunction="3way_58"/>
<trip id="38" depart="11.875" fromJunction="3way_23" toJunction="3way_57"/>
<trip id="39" depart="12.1875" fromJunction="4way_9" toJunction="3way_40"/>
<trip id="40" depart="12.5" fromJunction="4way_51" toJunction="3way_4"/>
<trip id="41" depart="12.8125" fromJunction="3way_59" toJunction="4way_34"/>
<trip id="42" depart="13.125" fromJunction="3way_6" toJunction="4way_18"/>
<trip id="43" depart="13.4375" fromJunction="4way_22" toJunction="4way_42"/>
<trip id="44" depart="13.75" fromJunction="4way_43" toJunction="3way_40"/>
<trip id="45" depart="14.0625" fromJunction="4way_12" toJunction="3way_23"/>
<trip id="46" depart="14.375" fromJunction="3way_47" toJunction="3way_57"/>
<trip id="47" depart="14.6875" fromJunction="3way_2" toJunction="4way_50"/>
<trip id="48" depart="15.0" fromJunction="3way_1" toJunction="4way_21"/>
<trip id="49" depart="15.3125" fromJunction="3way_58" toJunction="4way_43"/>
<trip id="50" depart="15.625" fromJunction="4way_38" toJunction="4way_28"/>
<trip id="51" depart="15.9375" fromJunction="4way_42" toJunction="3way_60"/>
<trip id="52" depart="16.25" fromJunction="4way_42" toJunction="4way_50"/>
<trip id="53" depart="16.5625" fromJunction="4way_38" toJunction="3way_61"/>
<trip id="54" depart="16.875" fromJunction="4way_29" toJunction="4way_25"/>
<trip id="55" depart="17.1875" fromJunction="3way_57" toJunction="4way_51"/>
<trip id="56" depart="17.5" fromJunction="3way_8" toJunction="4way_13"/>
<trip id="57" depart="17.8125" fromJunction="4way_42" toJunction="4way_45"/>
<trip id="58" depart="18.125" fromJunction="4way_51" toJunction="4way_45"/>
<trip id="59" depart="18.4375" fromJunction="4way_10" toJunction="4way_20"/>
<trip id="60" depart="18.75" fromJunction="4way_27" toJunction="4way_38"/>
<trip id="61" depart="19.0625" fromJunction="4way_11" toJunction="4way_17"/>
<trip id="62" depart="19.375" fromJunction="3way_48" toJunction="3way_2"/>
<trip id="63" depart="19.6875" fromJunction="3way_57" toJunction="4way_35"/>
<trip id="64" depart="20.0" fromJunction="4way_17" toJunction="4way_19"/>
<trip id="65" depart="20.3125" fromJunction="3way_57" toJunction="3way_31"/>
<trip id="66" depart="20.625" fromJunction="4way_50" toJunction="4way_42"/>
<trip id="67" depart="20.9375" fromJunction="4way_35" toJunction="4way_42"/>
<trip id="68" depart="21.25" fromJunction="4way_17" toJunction="4way_35"/>
<trip id="69" depart="21.5625" fromJunction="3way_16" toJunction="4way_53"/>
<trip id="70" depart="21.875" fromJunction="4way_53" toJunction="4way_25"/>
<trip id="71" depart="22.1875" fromJunction="4way_12" toJunction="4way_13"/>
<trip id="72" depart="22.5" fromJunction="4way_22" toJunction="3way_15"/>
<trip id="73" depart="22.8125" fromJunction="4way_54" toJunction="4way_12"/>
<trip id="74" depart="23.125" fromJunction="4way_45" toJunction="3way_31"/>
<trip id="75" depart="23.4375" fromJunction="4way_11" toJunction="3way_39"/>
<trip id="76" depart="23.75" fromJunction="4way_29" toJunction="3way_23"/>
<trip id="77" depart="24.0625" fromJunction="4way_42" toJunction="4way_13"/>
<trip id="78" depart="24.375" fromJunction="3way_5" toJunction="4way_9"/>
<trip id="79" depart="24.6875" fromJunction="4way_33" toJunction="4way_51"/>
<trip id="80" depart="25.0" fromJunction="4way_37" toJunction="4way_20"/>
<trip id="81" depart="25.3125" fromJunction="4way_37" toJunction="4way_46"/>
<trip id="82" depart="25.625" fromJunction="3way_24" toJunction="3way_1"/>
<trip id="83" depart="25.9375" fromJunction="3way_47" toJunction="4way_20"/>
<trip id="84" depart="26.25" fromJunction="3way_4" toJunction="4way_18"/>
<trip id="85" depart="26.5625" fromJunction="3way_2" toJunction="3way_55"/>
<trip id="86" depart="26.875" fromJunction="3way_61" toJunction="4way_52"/>
<trip id="87" depart="27.1875" fromJunction="4way_22" toJunction="3way_32"/>
<trip id="88" depart="27.5" fromJunction="3way_2" toJunction="4way_12"/>
<trip id="89" depart="27.8125" fromJunction="4way_19" toJunction="3way_39"/>
<trip id="90" depart="28.125" fromJunction="3way_60" toJunction="4way_42"/>
<trip id="91" depart="28.4375" fromJunction="4way_11" toJunction="4way_30"/>
<trip id="92" depart="28.75" fromJunction="4way_50" toJunction="4way_26"/>
<trip id="93" depart="29.0625" fromJunction="3way_48" toJunction="4way_20"/>
<trip id="94" depart="29.375" fromJunction="3way_62" toJunction="3way_8"/>
<trip id="95" depart="29.6875" fromJunction="4way_30" toJunction="3way_55"/>
<trip id="96" depart="30.0" fromJunction="4way_49" toJunction="4way_28"/>
<trip id="97" depart="30.3125" fromJunction="3way_59" toJunction="3way_61"/>
<trip id="98" depart="30.625" fromJunction="4way_25" toJunction="3way_4"/>
<trip id="99" depart="30.9375" fromJunction="4way_51" toJunction="3way_48"/>
<trip id="100" depart="31.25" fromJunction="3way_47" toJunction="3way_16"/>
<trip id="101" depart="31.5625" fromJunction="3way_5" toJunction="3way_2"/>
<trip id="102" depart="31.875" fromJunction="4way_33" toJunction="4way_43"/>
<trip id="103" depart="32.1875" fromJunction="4way_53" toJunction="4way_26"/>
<trip id="104" depart="32.5" fromJunction="3way_61" toJunction="4way_54"/>
<trip id="105" depart="32.8125" fromJunction="3way_59" toJunction="4way_35"/>
<trip id="106" depart="33.125" fromJunction="4way_36" toJunction="3way_2"/>
<trip id="107" depart="33.4375" fromJunction="3way_8" toJunction="3way_40"/>
<trip id="108" depart="33.75" fromJunction="4way_21" toJunction="4way_50"/>
<trip id="109" depart="34.0625" fromJunction="4way_45" toJunction="4way_19"/>
<trip id="110" depart="34.375" fromJunction="4way_52" toJunction="3way_58"/>
<trip id="111" depart="34.6875" fromJunction="4way_38" toJunction="3way_55"/>
<trip id="112" depart="35.0" fromJunction="3way_62" toJunction="4way_51"/>
<trip id="113" depart="35.3125" fromJunction="4way_20" toJunction="4way_30"/>
<trip id="114" depart="35.625" fromJunction="3way_62" toJunction="3way_59"/>
<trip id="115" depart="35.9375" fromJunction="3way_2" toJunction="4way_18"/>
<trip id="116" depart="36.25" fromJunction="4way_17" toJunction="3way_62"/>
<trip id="117" depart="36.5625" fromJunction="4way_33" toJunction="3way_16"/>
<trip id="118" depart="36.875" fromJunction="4way_50" toJunction="3way_58"/>
<trip id="119" depart="37.1875" fromJunction="3way_23" toJunction="4way_37"/>
<trip id="120" depart="37.5" fromJunction="3way_23" toJunction="4way_18"/>
<trip id="121" depart="37.8125" fromJunction="3way_8" toJunction="4way_20"/>
<trip id="122" depart="38.125" fromJunction="3way_47" toJunction="4way_34"/>
<trip id="123" depart="38.4375" fromJunction="4way_49" toJunction="3way_31"/>
<trip id="124" depart="38.75" fromJunction="4way_30" toJunction="3way_24"/>
<trip id="125" depart="39.0625" fromJunction="4way_28" toJunction="4way_36"/>
<trip id="126" depart="39.375" fromJunction="3way_6" toJunction="4way_14"/>
<trip id="127" depart="39.6875" fromJunction="4way_50" toJunction="4way_34"/>
<trip id="128" depart="40.0" fromJunction="3way_57" toJunction="4way_38"/>
<trip id="129" depart="40.3125" fromJunction="3way_15" toJunction="3way_60"/>
<trip id="130" depart="40.625" fromJunction="4way_22" toJunction="3way_1"/>
<trip id="131" depart="40.9375" fromJunction="4way_52" toJunction="4way_43"/>
<trip id="132" depart="41.25" fromJunction="4way_50" toJunction="3way_58"/>
<trip id="133" depart="41.5625" fromJunction="4way_49" toJunction="3way_4"/>
<trip id="134" depart="41.875" fromJunction="4way_45" toJunction="4way_46"/>
<trip id="135" depart="42.1875" fromJunction="4way_38" toJunction="3way_32"/>
<trip id="136" depart="42.5" fromJunction="4way_30" toJunction="3way_61"/>
<trip id="137" depart="42.8125" fromJunction="4way_52" toJunction="4way_30"/>
<trip id="138" depart="43.125" fromJunction="4way_45" toJunction="4way_19"/>
<trip id="139" depart="43.4375" fromJunction="4way_29" toJunction="3way_57"/>
<trip id="140" depart="43.75" fromJunction="3way_1" toJunction="4way_19"/>
<trip id="141" depart="44.0625" fromJunction="3way_31" toJunction="3way_32"/>
<trip id="142" depart="44.375" fromJunction="4way_41" toJunction="4way_46"/>
<trip id="143" depart="44.6875" fromJunction="4way_27" toJunction="4way_49"/>
<trip id="144" depart="45.0" fromJunction="3way_31" toJunction="3way_16"/>
<trip id="145" depart="45.3125" fromJunction="3way_55" toJunction="4way_21"/>
<trip id="146" depart="45.625" fromJunction="3way_61" toJunction="4way_10"/>
<trip id="147" depart="45.9375" fromJunction="4way_37" toJunction="3way_6"/>
<trip id="148" depart="46.25" fromJunction="4way_38" toJunction="4way_46"/>
<trip id="149" depart="46.5625" fromJunction="4way_44" toJunction="4way_14"/>
<trip id="150" depart="46.875" fromJunction="3way_5" toJunction="3way_40"/>
<trip id="151" depart="47.1875" fromJunction="3way_61" toJunction="4way_9"/>
<trip id="152" depart="47.5" fromJunction="3way_4" toJunction="3way_23"/>
<trip id="153" depart="47.8125" fromJunction="3way_1" toJunction="4way_20"/>
<trip id="154" depart="48.125" fromJunction="3way_31" toJunction="4way_44"/>
<trip id="155" depart="48.4375" fromJunction="3way_6" toJunction="3way_5"/>
<trip id="156" depart="48.75" fromJunction="3way_60" toJunction="4way_43"/>
<trip id="157" depart="49.0625" fromJunction="4way_34" toJunction="4way_17"/>
<trip id="158" depart="49.375" fromJunction="4way_20" toJunction="4way_37"/>
<trip id="159" depart="49.6875" fromJunction="3way_23" toJunction="3way_58"/>
<trip id="160" depart="50.0" fromJunction="3way_48" toJunction="3way_4"/>
<trip id="161" depart="50.3125" fromJunction="4way_33" toJunction="3way_59"/>
<trip id="162" depart="50.625" fromJunction="4way_51" toJunction="4way_43"/>
<trip id="163" depart="50.9375" fromJunction="3way_16" toJunction="3way_57"/>
<trip id="164" depart="51.25" fromJunction="4way_52" toJunction="3way_47"/>
<trip id="165" depart="51.5625" fromJunction="4way_51" toJunction="3way_4"/>
<trip id="166" depart="51.875" fromJunction="3way_16" toJunction="3way_59"/>
<trip id="167" depart="52.1875" fromJunction="3way_58" toJunction="4way_50"/>
<trip id="168" depart="52.5" fromJunction="3way_55" toJunction="3way_16"/>
<trip id="169" depart="52.8125" fromJunction="3way_3" toJunction="4way_33"/>
<trip id="170" depart="53.125" fromJunction="3way_5" toJunction="4way_52"/>
<trip id="171" depart="53.4375" fromJunction="3way_48" toJunction="4way_18"/>
<trip id="172" depart="53.75" fromJunction="4way_38" toJunction="4way_42"/>
<trip id="173" depart="54.0625" fromJunction="3way_3" toJunction="4way_27"/>
<trip id="174" depart="54.375" fromJunction="4way_10" toJunction="4way_17"/>
<trip id="175" depart="54.6875" fromJunction="4way_43" toJunction="4way_26"/>
<trip id="176" depart="55.0" fromJunction="3way_23" toJunction="3way_58"/>
<trip id="177" depart="55.3125" fromJunction="4way_38" toJunction="3way_8"/>
<trip id="178" depart="55.625" fromJunction="4way_14" toJunction="3way_55"/>
<trip id="179" depart="55.9375" fromJunction="4way_33" toJunction="4way_26"/>
<trip id="180" depart="56.25" fromJunction="4way_33" toJunction="4way_45"/>
<trip id="181" depart="56.5625" fromJunction="3way_8" toJunction="4way_20"/>
<trip id="182" depart="56.875" fromJunction="4way_51" toJunction="4way_14"/>
<trip id="183" depart="57.1875" fromJunction="3way_40" toJunction="4way_51"/>
<trip id="184" depart="57.5" fromJunction="4way_27" toJunction="4way_36"/>
<trip id="185" depart="57.8125" fromJunction="3way_39" toJunction="3way_60"/>
<trip id="186" depart="58.125" fromJunction="4way_38" toJunction="4way_52"/>
<trip id="187" depart="58.4375" fromJunction="4way_50" toJunction="4way_33"/>
<trip id="188" depart="58.75" fromJunction="4way_33" toJunction="4way_37"/>
<trip id="189" depart="59.0625" fromJunction="4way_42" toJunction="4way_38"/>
<trip id="190" depart="59.375" fromJunction="4way_14" toJunction="4way_21"/>
<trip id="191" depart="59.6875" fromJunction="3way_39" toJunction="4way_13"/>
<trip id="192" depart="60.0" fromJunction="3way_8" toJunction="4way_19"/>
<trip id="193" depart="60.3125" fromJunction="4way_17" toJunction="3way_4"/>
<trip id="194" depart="60.625" fromJunction="4way_29" toJunction="3way_59"/>
<trip id="195" depart="60.9375" fromJunction="4way_38" toJunction="3way_2"/>
<trip id="196" depart="61.25" fromJunction="3way_55" toJunction="3way_1"/>
<trip id="197" depart="61.5625" fromJunction="4way_22" toJunction="4way_9"/>
<trip id="198" depart="61.875" fromJunction="4way_30" toJunction="3way_6"/>
<trip id="199" depart="62.1875" fromJunction="4way_33" toJunction="4way_45"/>
<trip id="200" depart="62.5" fromJunction="3way_61" toJunction="3way_40"/>
<trip id="201" depart="62.8125" fromJunction="3way_2" toJunction="4way_11"/>
<trip id="202" depart="63.125" fromJunction="4way_17" toJunction="3way_1"/>
<trip id="203" depart="63.4375" fromJunction="3way_59" toJunction="3way_5"/>
<trip id="204" depart="63.75" fromJunction="3way_59" toJunction="3way_61"/>
<trip id="205" depart="64.0625" fromJunction="3way_1" toJunction="3way_23"/>
<trip id="206" depart="64.375" fromJunction="4way_19" toJunction="3way_15"/>
<trip id="207" depart="64.6875" fromJunction="4way_54" toJunction="4way_46"/>
<trip id="208" depart="65.0" fromJunction="3way_39" toJunction="4way_9"/>
<trip id="209" depart="65.3125" fromJunction="4way_49" toJunction="4way_27"/>
<trip id="210" depart="65.625" fromJunction="3way_4" toJunction="4way_54"/>
<trip id="211" depart="65.9375" fromJunction="3way_57" toJunction="4way_44"/>
<trip id="212" depart="66.25" fromJunction="4way_35" toJunction="3way_60"/>
<trip id="213" depart="66.5625" fromJunction="4way_35" toJunction="3way_60"/>
<trip id="214" depart="66.875" fromJunction="4way_17" toJunction="4way_18"/>
<trip id="215" depart="67.1875" fromJunction="3way_57" toJunction="4way_34"/>
<trip id="216" depart="67.5" fromJunction="4way_9" toJunction="4way_12"/>
<trip id="217" depart="67.8125" fromJunction="4way_21" toJunction="3way_24"/>
<trip id="218" depart="68.125" fromJunction="3way_3" toJunction="4way_22"/>
<trip id="219" depart="68.4375" fromJunction="3way_32" toJunction="3way_61"/>
<trip id="220" depart="68.75" fromJunction="4way_54" toJunction="4way_13"/>
<trip id="221" depart="69.0625" fromJunction="4way_14" toJunction="4way_46"/>
<trip id="222" depart="69.375" fromJunction="4way_54" toJunction="3way_57"/>
<trip id="223" depart="69.6875" fromJunction="3way_15" toJunction="3way_60"/>
<trip id="224" depart="70.0" fromJunction="3way_60" toJunction="4way_38"/>
<trip id="225" depart="70.3125" fromJunction="3way_4" toJunction="4way_51"/>
<trip id="226" depart="70.625" fromJunction="4way_45" toJunction="4way_20"/>
<trip id="227" depart="70.9375" fromJunction="3way_16" toJunction="3way_58"/>
<trip id="228" depart="71.25" fromJunction="4way_28" toJunction="3way_16"/>
<trip id="229" depart="71.5625" fromJunction="3way_47" toJunction="3way_60"/>
<trip id="230" depart="71.875" fromJunction="3way_48" toJunction="4way_25"/>
<trip id="231" depart="72.1875" fromJunction="3way_60" toJunction="4way_29"/>
<trip id="232" depart="72.5" fromJunction="4way_30" toJunction="4way_10"/>
<trip id="233" depart="72.8125" fromJunction="4way_45" toJunction="4way_27"/>
<trip id="234" depart="73.125" fromJunction="4way_36" toJunction="4way_30"/>
<trip id="235" depart="73.4375" fromJunction="4way_46" toJunction="4way_51"/>
<trip id="236" depart="73.75" fromJunction="4way_33" toJunction="4way_54"/>
<trip id="237" depart="74.0625" fromJunction="3way_57" toJunction="3way_5"/>
<trip id="238" depart="74.375" fromJunction="4way_17" toJunction="3way_39"/>
<trip id="239" depart="74.6875" fromJunction="4way_11" toJunction="3way_23"/>
<trip id="240" depart="75.0" fromJunction="4way_53" toJunction="3way_16"/>
<trip id="241" depart="75.3125" fromJunction="4way_26" toJunction="4way_46"/>
<trip id="242" depart="75.625" fromJunction="4way_50" toJunction="3way_58"/>
<trip id="243" depart="75.9375" fromJunction="4way_9" toJunction="4way_53"/>
<trip id="244" depart="76.25" fromJunction="3way_58" toJunction="4way_34"/>
<trip id="245" depart="76.5625" fromJunction="4way_9" toJunction="4way_33"/>
<trip id="246" depart="76.875" fromJunction="4way_10" toJunction="3way_60"/>
<trip id="247" depart="77.1875" fromJunction="3way_16" toJunction="3way_48"/>
<trip id="248" depart="77.5" fromJunction="4way_36" toJunction="4way_18"/>
<trip id="249" depart="77.8125" fromJunction="4way_22" toJunction="3way_32"/>
<trip id="250" depart="78.125" fromJunction="3way_3" toJunction="4way_37"/>
<trip id="251" depart="78.4375" fromJunction="4way_25" toJunction="3way_59"/>
<trip id="252" depart="78.75" fromJunction="3way_32" toJunction="3way_15"/>
<trip id="253" depart="79.0625" fromJunction="4way_43" toJunction="4way_28"/>
<trip id="254" depart="79.375" fromJunction="4way_12" toJunction="4way_19"/>
<trip id="255" depart="79.6875" fromJunction="3way_32" toJunction="3way_62"/>
<trip id="256" depart="80.0" fromJunction="4way_45" toJunction="4way_43"/>
<trip id="257" depart="80.3125" fromJunction="3way_58" toJunction="4way_26"/>
<trip id="258" depart="80.625" fromJunction="4way_12" toJunction="3way_2"/>
<trip id="259" depart="80.9375" fromJunction="3way_16" toJunction="3way_1"/>
<trip id="260" depart="81.25" fromJunction="4way_22" toJunction="4way_18"/>
<trip id="261" depart="81.5625" fromJunction="4way_9" toJunction="3way_6"/>
<trip id="262" depart="81.875" fromJunction="3way_32" toJunction="3way_2"/>
<trip id="263" depart="82.1875" fromJunction="3way_58" toJunction="4way_19"/>
<trip id="264" depart="82.5" fromJunction="3way_15" toJunction="3way_62"/>
<trip id="265" depart="82.8125" fromJunction="4way_51" toJunction="4way_42"/>
<trip id="266" depart="83.125" fromJunction="4way_30" toJunction="4way_43"/>
<trip id="267" depart="83.4375" fromJunction="4way_27" toJunction="3way_1"/>
<trip id="268" depart="83.75" fromJunction="4way_50" toJunction="4way_11"/>
<trip id="269" depart="84.0625" fromJunction="3way_2" toJunction="4way_38"/>
<trip id="270" depart="84.375" fromJunction="4way_13" toJunction="4way_51"/>
<trip id="271" depart="84.6875" fromJunction="3way_32" toJunction="4way_10"/>
<trip id="272" depart="85.0" fromJunction="3way_6" toJunction="4way_52"/>
<trip id="273" depart="85.3125" fromJunction="4way_18" toJunction="4way_25"/>
<trip id="274" depart="85.625" fromJunction="3way_6" toJunction="4way_51"/>
<trip id="275" depart="85.9375" fromJunction="4way_9" toJunction="3way_61"/>
<trip id="276" depart="86.25" fromJunction="4way_53" toJunction="4way_19"/>
<trip id="277" depart="86.5625" fromJunction="3way_31" toJunction="4way_19"/>
<trip id="278" depart="86.875" fromJunction="4way_45" toJunction="4way_46"/>
<trip id="279" depart="87.1875" fromJunction="4way_22" toJunction="4way_10"/>
<trip id="280" depart="87.5" fromJunction="4way_22" toJunction="4way_26"/>
<trip id="281" depart="87.8125" fromJunction="4way_46" toJunction="4way_21"/>
<trip id="282" depart="88.125" fromJunction="3way_3" toJunction="4way_22"/>
<trip id="283" depart="88.4375" fromJunction="3way_8" toJunction="3way_47"/>
<trip id="284" depart="88.75" fromJunction="3way_48" toJunction="4way_38"/>
<trip id="285" depart="89.0625" fromJunction="4way_53" toJunction="3way_39"/>
<trip id="286" depart="89.375" fromJunction="4way_14" toJunction="4way_25"/>
<trip id="287" depart="89.6875" fromJunction="4way_35" toJunction="3way_39"/>
<trip id="288" depart="90.0" fromJunction="3way_5" toJunction="4way_25"/>
<trip id="289" depart="90.3125" fromJunction="3way_60" toJunction="4way_51"/>
<trip id="290" depart="90.625" fromJunction="3way_4" toJunction="3way_3"/>
<trip id="291" depart="90.9375" fromJunction="4way_14" toJunction="3way_4"/>
<trip id="292" depart="91.25" fromJunction="4way_53" toJunction="4way_28"/>
<trip id="293" depart="91.5625" fromJunction="4way_18" toJunction="4way_43"/>
<trip id="294" depart="91.875" fromJunction="4way_54" toJunction="3way_48"/>
<trip id="295" depart="92.1875" fromJunction="4way_41" toJunction="3way_24"/>
<trip id="296" depart="92.5" fromJunction="4way_46" toJunction="3way_16"/>
<trip id="297" depart="92.8125" fromJunction="3way_40" toJunction="3way_47"/>
<trip id="298" depart="93.125" fromJunction="3way_4" toJunction="4way_43"/>
<trip id="299" depart="93.4375" fromJunction="4way_41" toJunction="4way_11"/>
<trip id="300" depart="93.75" fromJunction="3way_60" toJunction="3way_57"/>
<trip id="301" depart="94.0625" fromJunction="3way_16" toJunction="4way_10"/>
<trip id="302" depart="94.375" fromJunction="3way_32" toJunction="4way_33"/>
<trip id="303" depart="94.6875" fromJunction="3way_31" toJunction="4way_46"/>
<trip id="304" depart="95.0" fromJunction="3way_32" toJunction="3way_6"/>
<trip id="305" depart="95.3125" fromJunction="4way_35" toJunction="4way_50"/>
<trip id="306" depart="95.625" fromJunction="4way_54" toJunction="3way_8"/>
<trip id="307" depart="95.9375" fromJunction="4way_20" toJunction="3way_24"/>
<trip id="308" depart="96.25" fromJunction="4way_13" toJunction="4way_27"/>
<trip id="309" depart="96.5625" fromJunction="4way_53" toJunction="4way_46"/>
<trip id="310" depart="96.875" fromJunction="4way_51" toJunction="4way_36"/>
<trip id="311" depart="97.1875" fromJunction="3way_31" toJunction="3way_32"/>
<trip id="312" depart="97.5" fromJunction="3way_60" toJunction="3way_4"/>
<trip id="313" depart="97.8125" fromJunction="4way_18" toJunction="4way_17"/>
<trip id="314" depart="98.125" fromJunction="4way_38" toJunction="4way_44"/>
<trip id="315" depart="98.4375" fromJunction="3way_15" toJunction="3way_23"/>
<trip id="316" depart="98.75" fromJunction="4way_28" toJunction="4way_50"/>
<trip id="317" depart="99.0625" fromJunction="4way_30" toJunction="4way_29"/>
<trip id="318" depart="99.375" fromJunction="3way_8" toJunction="4way_54"/>
<trip id="319" depart="99.6875" fromJunction="3way_31" toJunction="3way_16"/>
<trip id="320" depart="100.0" fromJunction="4way_35" toJunction="4way_51"/>
<trip id="321" depart="100.3125" fromJunction="3way_6" toJunction="4way_37"/>
<trip id="322" depart="100.625" fromJunction="4way_42" toJunction="4way_49"/>
<trip id="323" depart="100.9375" fromJunction="3way_47" toJunction="3way_60"/>
<trip id="324" depart="101.25" fromJunction="3way_4" toJunction="4way_37"/>
<trip id="325" depart="101.5625" fromJunction="3way_15" toJunction="4way_41"/>
<trip id="326" depart="101.875" fromJunction="4way_46" toJunction="4way_33"/>
<trip id="327" depart="102.1875" fromJunction="4way_37" toJunction="4way_17"/>
<trip id="328" depart="102.5" fromJunction="3way_58" toJunction="3way_23"/>
<trip id="329" depart="102.8125" fromJunction="3way_8" toJunction="4way_9"/>
<trip id="330" depart="103.125" fromJunction="3way_32" toJunction="4way_43"/>
<trip id="331" depart="103.4375" fromJunction="4way_27" toJunction="4way_12"/>
<trip id="332" depart="103.75" fromJunction="4way_17" toJunction="3way_8"/>
<trip id="333" depart="104.0625" fromJunction="3way_5" toJunction="4way_11"/>
<trip id="334" depart="104.375" fromJunction="4way_35" toJunction="4way_21"/>
<trip id="335" depart="104.6875" fromJunction="4way_26" toJunction="4way_20"/>
<trip id="336" depart="105.0" fromJunction="4way_9" toJunction="3way_15"/>
<trip id="337" depart="105.3125" fromJunction="3way_40" toJunction="4way_9"/>
<trip id="338" depart="105.625" fromJunction="4way_28" toJunction="3way_2"/>
<trip id="339" depart="105.9375" fromJunction="4way_11" toJunction="3way_15"/>
<trip id="340" depart="106.25" fromJunction="4way_27" toJunction="4way_12"/>
<trip id="341" depart="106.5625" fromJunction="3way_15" toJunction="4way_38"/>
<trip id="342" depart="106.875" fromJunction="3way_2" toJunction="4way_45"/>
<trip id="343" depart="107.1875" fromJunction="4way_9" toJunction="4way_26"/>
<trip id="344" depart="107.5" fromJunction="3way_24" toJunction="4way_18"/>
<trip id="345" depart="107.8125" fromJunction="3way_2" toJunction="3way_55"/>
<trip id="346" depart="108.125" fromJunction="4way_29" toJunction="4way_18"/>
<trip id="347" depart="108.4375" fromJunction="3way_61" toJunction="3way_16"/>
<trip id="348" depart="108.75" fromJunction="3way_6" toJunction="3way_5"/>
<trip id="349" depart="109.0625" fromJunction="3way_15" toJunction="3way_61"/>
<trip id="350" depart="109.375" fromJunction="3way_4" toJunction="3way_59"/>
<trip id="351" depart="109.6875" fromJunction="4way_37" toJunction="3way_4"/>
<trip id="352" depart="110.0" fromJunction="4way_34" toJunction="3way_39"/>
<trip id="353" depart="110.3125" fromJunction="4way_33" toJunction="4way_44"/>
<trip id="354" depart="110.625" fromJunction="3way_55" toJunction="3way_39"/>
<trip id="355" depart="110.9375" fromJunction="4way_18" toJunction="4way_17"/>
<trip id="356" depart="111.25" fromJunction="4way_44" toJunction="3way_32"/>
<trip id="357" depart="111.5625" fromJunction="4way_22" toJunction="4way_36"/>
<trip id="358" depart="111.875" fromJunction="4way_53" toJunction="3way_2"/>
<trip id="359" depart="112.1875" fromJunction="4way_45" toJunction="3way_8"/>
<trip id="360" depart="112.5" fromJunction="4way_54" toJunction="4way_51"/>
<trip id="361" depart="112.8125" fromJunction="3way_24" toJunction="4way_36"/>
<trip id="362" depart="113.125" fromJunction="3way_16" toJunction="4way_10"/>
<trip id="363" depart="113.4375" fromJunction="3way_59" toJunction="3way_24"/>
<trip id="364" depart="113.75" fromJunction="4way_43" toJunction="4way_49"/>
<trip id="365" depart="114.0625" fromJunction="4way_18" toJunction="3way_58"/>
<trip id="366" depart="114.375" fromJunction="3way_39" toJunction="3way_23"/>
<trip id="367" depart="114.6875" fromJunction="4way_46" toJunction="3way_3"/>
<trip id="368" depart="115.0" fromJunction="3way_47" toJunction="3way_1"/>
<trip id="369" depart="115.3125" fromJunction="3way_5" toJunction="4way_11"/>
<trip id="370" depart="115.625" fromJunction="4way_20" toJunction="4way_45"/>
<trip id="371" depart="115.9375" fromJunction="4way_10" toJunction="4way_38"/>
<trip id="372" depart="116.25" fromJunction="4way_26" toJunction="3way_48"/>
<trip id="373" depart="116.5625" fromJunction="4way_18" toJunction="4way_22"/>
<trip id="374" depart="116.875" fromJunction="4way_45" toJunction="3way_58"/>
<trip id="375" depart="117.1875" fromJunction="3way_1" toJunction="3way_16"/>
<trip id="376" depart="117.5" fromJunction="3way_40" toJunction="3way_60"/>
<trip id="377" depart="117.8125" fromJunction="4way_33" toJunction="4way_37"/>
<trip id="378" depart="118.125" fromJunction="3way_32" toJunction="4way_25"/>
<trip id="379" depart="118.4375" fromJunction="4way_30" toJunction="4way_45"/>
<trip id="380" depart="118.75" fromJunction="3way_16" toJunction="4way_54"/>
<trip id="381" depart="119.0625" fromJunction="4way_52" toJunction="4way_38"/>
<trip id="382" depart="119.375" fromJunction="3way_60" toJunction="4way_43"/>
<trip id="383" depart="119.6875" fromJunction="3way_39" toJunction="3way_62"/>
<trip id="384" depart="120.0" fromJunction="3way_57" toJunction="4way_22"/>
<trip id="385" depart="120.3125" fromJunction="4way_49" toJunction="4way_33"/>
<trip id="386" depart="120.625" fromJunction="4way_29" toJunction="4way_44"/>
<trip id="387" depart="120.9375" fromJunction="4way_17" toJunction="3way_31"/>
<trip id="388" depart="121.25" fromJunction="4way_21" toJunction="4way_29"/>