<routes xmlns:xsi="http://www.w3.org/2001/XMLSchema-instance" xsi:noNamespaceSchemaLocation="http://sumo.dlr.de/xsd/routes_file.xsd">
<trip id="0" depart="0.0" fromJunction="4way_67" toJunction="4way_12"/>
<trip id="1" depart="0.2222" fromJunction="4way_65" toJunction="4way_48"/>
<trip id="2" depart="0.4444" fromJunction="4way_13" toJunction="4way_46"/>
<trip id="3" depart="0.6666000000000001" fromJunction="4way_60" toJunction="4way_55"/>
<trip id="4" depart="0.8888" fromJunction="4way_19" toJunction="4way_52"/>
<trip id="5" depart="1.111" fromJunction="4way_56" toJunction="4way_50"/>
<trip id="6" depart="1.3332000000000002" fromJunction="4way_25" toJunction="4way_21"/>
<trip id="7" depart="1.5554000000000001" fromJunction="3way_7" toJunction="3way_6"/>
<trip id="8" depart="1.7776" fromJunction="4way_24" toJunction="3way_2"/>
<trip id="9" depart="1.9998" fromJunction="4way_42" toJunction="4way_41"/>
<trip id="10" depart="2.222" fromJunction="4way_59" toJunction="4way_61"/>
<trip id="11" depart="2.4442" fromJunction="4way_50" toJunction="4way_11"/>
<trip id="12" depart="2.6664000000000003" fromJunction="4way_13" toJunction="3way_35"/>
<trip id="13" depart="2.8886000000000003" fromJunction="4way_34" toJunction="3way_53"/>
<trip id="14" depart="3.1108000000000002" fromJunction="4way_37" toJunction="4way_56"/>
<trip id="15" depart="3.333" fromJunction="4way_41" toJunction="3way_73"/>
<trip id="16" depart="3.5552" fromJunction="4way_21" toJunction="4way_11"/>
<trip id="17" depart="3.7774" fromJunction="4way_57" toJunction="3way_2"/>
<trip id="18" depart="3.9996" fromJunction="4way_40" toJunction="4way_34"/>
<trip id="19" depart="4.2218" fromJunction="4way_55" toJunction="3way_9"/>
<trip id="20" depart="4.444" fromJunction="3way_5" toJunction="4way_49"/>
<trip id="21" depart="4.6662" fromJunction="3way_35" toJunction="3way_77"/>
<trip id="22" depart="4.8884" fromJunction="4way_10" toJunction="3way_36"/>
<trip id="23" depart="5.1106" fromJunction="4way_55" toJunction="4way_21"/>
<trip id="24" depart="5.332800000000001" fromJunction="3way_17" toJunction="4way_70"/>
<trip id="25" depart="5.555000000000001" fromJunction="3way_62" toJunction="3way_77"/>
<trip id="26" depart="5.777200000000001" fromJunction="3way_74" toJunction="4way_22"/>
<trip id="27" depart="5.9994000000000005" fromJunction="3way_75" toJunction="4way_11"/>
<trip id="28" depart="6.2216000000000005" fromJunction="3way_26" toJunction="3way_62"/>
<trip id="29" depart="6.4438" fromJunction="3way_44" toJunction="4way_22"/>
<trip id="30" depart="6.666" fromJunction="4way_10" toJunction="3way_78"/>
<trip id="31" depart="6.8882" fromJunction="3way_17" toJunction="4way_15"/>
<trip id="32" depart="7.1104" fromJunction="3way_17" toJunction="4way_24"/>
<trip id="33" depart="7.3326" fromJunction="4way_20" toJunction="4way_61"/>
<trip id="34" depart="7.5548" fromJunction="4way_48" toJunction="4way_61"/>
<trip id="35" depart="7.777" fromJunction="3way_4" toJunction="4way_14"/>
<trip id="36" depart="7.9992" fromJunction="3way_35" toJunction="3way_63"/>
<trip id="37" depart="8.221400000000001" fromJunction="3way_35" toJunction="3way_54"/>
<trip id="38" depart="8.4436" fromJunction="4way_37" toJunction="3way_36"/>
<trip id="39" depart="8.6658" fromJunction="4way_49" toJunction="3way_5"/>
<trip id="40" depart="8.888" fromJunction="3way_73" toJunction="4way_21"/>
<trip id="41" depart="9.1102" fromJunction="3way_17" toJunction="4way_56"/>
<trip id="42" depart="9.3324" fromJunction="4way_25" toJunction="4way_30"/>
<trip id="43" depart="9.5546" fromJunction="4way_31" toJunction="3way_36"/>
<trip id="44" depart="9.7768" fromJunction="4way_67" toJunction="3way_44"/>
<trip id="45" depart="9.999" fromJunction="3way_79" toJunction="3way_54"/>
<trip id="46" depart="10.2212" fromJunction="3way_2" toJunction="4way_39"/>
<trip id="47" depart="10.4434" fromJunction="3way_1" toJunction="4way_15"/>
<trip id="48" depart="10.665600000000001" fromJunction="3way_73" toJunction="4way_40"/>
<trip id="49" depart="10.8878" fromJunction="4way_52" toJunction="4way_14"/>
<trip id="50" depart="11.110000000000001" fromJunction="4way_30" toJunction="3way_74"/>
<trip id="51" depart="11.3322" fromJunction="4way_30" toJunction="4way_39"/>
<trip id="52" depart="11.554400000000001" fromJunction="4way_43" toJunction="3way_76"/>
<trip id="53" depart="11.7766" fromJunction="4way_33" toJunction="4way_64"/>
<trip id="54" depart="11.998800000000001" fromJunction="3way_54" toJunction="4way_49"/>
<trip id="55" depart="12.221" fromJunction="4way_28" toJunction="4way_68"/>
<trip id="56" depart="12.443200000000001" fromJunction="4way_30" toJunction="4way_51"/>
<trip id="57" depart="12.6654" fromJunction="4way_49" toJunction="4way_51"/>
<trip id="58" depart="12.8876" fromJunction="4way_38" toJunction="4way_67"/>
<trip id="59" depart="13.1098" fromJunction="4way_13" toJunction="4way_43"/>
<trip id="60" depart="13.332" fromJunction="4way_48" toJunction="4way_46"/>
<trip id="61" depart="13.5542" fromJunction="3way_45" toJunction="3way_2"/>
<trip id="62" depart="13.7764" fromJunction="3way_54" toJunction="4way_22"/>
<trip id="63" depart="13.9986" fromJunction="4way_55" toJunction="4way_57"/>
<trip id="64" depart="14.2208" fromJunction="3way_54" toJunction="3way_44"/>
<trip id="65" depart="14.443000000000001" fromJunction="4way_39" toJunction="4way_21"/>
<trip id="66" depart="14.6652" fromJunction="4way_22" toJunction="4way_30"/>
<trip id="67" depart="14.887400000000001" fromJunction="4way_55" toJunction="4way_22"/>
<trip id="68" depart="15.1096" fromJunction="4way_10" toJunction="4way_69"/>
<trip id="69" depart="15.331800000000001" fromJunction="4way_60" toJunction="4way_55"/>
<trip id="70" depart="15.554" fromJunction="4way_58" toJunction="4way_68"/>
<trip id="71" depart="15.776200000000001" fromJunction="4way_16" toJunction="3way_17"/>
<trip id="72" depart="15.9984" fromJunction="4way_70" toJunction="4way_58"/>
<trip id="73" depart="16.2206" fromJunction="4way_42" toJunction="3way_53"/>
<trip id="74" depart="16.442800000000002" fromJunction="4way_57" toJunction="3way_62"/>
<trip id="75" depart="16.665" fromJunction="4way_33" toJunction="3way_35"/>
<trip id="76" depart="16.8872" fromJunction="4way_21" toJunction="4way_68"/>
<trip id="77" depart="17.1094" fromJunction="3way_6" toJunction="4way_37"/>
<trip id="78" depart="17.3316" fromJunction="4way_64" toJunction="4way_49"/>
<trip id="79" depart="17.5538" fromJunction="4way_42" toJunction="4way_67"/>
<trip id="80" depart="17.776" fromJunction="4way_33" toJunction="4way_61"/>
<trip id="81" depart="17.9982" fromJunction="3way_9" toJunction="3way_1"/>
<trip id="82" depart="18.2204" fromJunction="3way_71" toJunction="4way_14"/>
<trip id="83" depart="18.442600000000002" fromJunction="3way_5" toJunction="4way_56"/>
<trip id="84" depart="18.6648" fromJunction="3way_2" toJunction="3way_78"/>
<trip id="85" depart="18.887" fromJunction="3way_76" toJunction="4way_59"/>
<trip id="86" depart="19.1092" fromJunction="4way_25" toJunction="3way_18"/>
<trip id="87" depart="19.331400000000002" fromJunction="3way_3" toJunction="4way_58"/>
<trip id="88" depart="19.5536" fromJunction="4way_57" toJunction="3way_62"/>
<trip id="89" depart="19.7758" fromJunction="3way_75" toJunction="4way_30"/>
<trip id="90" depart="19.998" fromJunction="4way_57" toJunction="4way_25"/>
<trip id="91" depart="20.220200000000002" fromJunction="4way_39" toJunction="4way_65"/>
<trip id="92" depart="20.4424" fromJunction="3way_36" toJunction="4way_14"/>
<trip id="93" depart="20.6646" fromJunction="3way_77" toJunction="4way_28"/>
<trip id="94" depart="20.8868" fromJunction="4way_34" toJunction="3way_79"/>
<trip id="95" depart="21.109" fromJunction="4way_29" toJunction="4way_14"/>
<trip id="96" depart="21.331200000000003" fromJunction="3way_74" toJunction="3way_76"/>
<trip id="97" depart="21.5534" fromJunction="4way_55" toJunction="3way_5"/>
<trip id="98" depart="21.7756" fromJunction="4way_49" toJunction="3way_36"/>
<trip id="99" depart="21.9978" fromJunction="3way_71" toJunction="4way_19"/>
<trip id="100" depart="22.220000000000002" fromJunction="3way_6" toJunction="3way_2"/>
<trip id="101" depart="22.4422" fromJunction="4way_64" toJunction="4way_40"/>
<trip id="102" depart="22.6644" fromJunction="4way_69" toJunction="4way_65"/>
<trip id="103" depart="22.8866" fromJunction="3way_77" toJunction="4way_70"/>
<trip id="104" depart="23.108800000000002" fromJunction="3way_73" toJunction="4way_31"/>
<trip id="105" depart="23.331" fromJunction="4way_32" toJunction="3way_2"/>
<trip id="106" depart="23.5532" fromJunction="4way_19" toJunction="3way_36"/>
<trip id="107" depart="23.7754" fromJunction="4way_15" toJunction="4way_39"/>
<trip id="108" depart="23.997600000000002" fromJunction="4way_51" toJunction="4way_66"/>
<trip id="109" depart="24.2198" fromJunction="4way_59" toJunction="3way_63"/>
<trip id="110" depart="24.442" fromJunction="4way_43" toJunction="3way_79"/>
<trip id="111" depart="24.6642" fromJunction="3way_77" toJunction="4way_40"/>
<trip id="112" depart="24.886400000000002" fromJunction="4way_14" toJunction="4way_34"/>
<trip id="113" depart="25.108600000000003" fromJunction="3way_77" toJunction="3way_74"/>
<trip id="114" depart="25.3308" fromJunction="3way_2" toJunction="4way_47"/>
<trip id="115" depart="25.553" fromJunction="4way_46" toJunction="3way_78"/>
<trip id="116" depart="25.7752" fromJunction="4way_11" toJunction="4way_10"/>
<trip id="117" depart="25.997400000000003" fromJunction="4way_39" toJunction="3way_63"/>
<trip id="118" depart="26.2196" fromJunction="3way_35" toJunction="4way_42"/>
<trip id="119" depart="26.4418" fromJunction="3way_44" toJunction="4way_47"/>
<trip id="120" depart="26.664" fromJunction="4way_28" toJunction="4way_67"/>
<trip id="121" depart="26.886200000000002" fromJunction="3way_79" toJunction="4way_21"/>
<trip id="122" depart="27.1084" fromJunction="4way_29" toJunction="3way_53"/>
<trip id="123" depart="27.3306" fromJunction="4way_34" toJunction="3way_9"/>
<trip id="124" depart="27.5528" fromJunction="4way_23" toJunction="4way_32"/>
<trip id="125" depart="27.775000000000002" fromJunction="3way_7" toJunction="4way_69"/>
<trip id="126" depart="27.9972" fromJunction="4way_39" toJunction="4way_12"/>
<trip id="127" depart="28.2194" fromJunction="3way_54" toJunction="4way_52"/>
<trip id="128" depart="28.4416" fromJunction="3way_17" toJunction="3way_75"/>
<trip id="129" depart="28.663800000000002" fromJunction="4way_25" toJunction="3way_2"/>
<trip id="130" depart="28.886000000000003" fromJunction="4way_50" toJunction="4way_31"/>
<trip id="131" depart="29.1082" fromJunction="4way_39" toJunction="3way_63"/>
<trip id="132" depart="29.3304" fromJunction="4way_29" toJunction="3way_5"/>
<trip id="133" depart="29.5526" fromJunction="4way_51" toJunction="4way_61"/>
<trip id="134" depart="29.774800000000003" fromJunction="4way_52" toJunction="3way_18"/>
<trip id="135" depart="29.997" fromJunction="4way_43" toJunction="3way_76"/>
<trip id="136" depart="30.2192" fromJunction="4way_59" toJunction="4way_34"/>
<trip id="137" depart="30.4414" fromJunction="4way_51" toJunction="4way_66"/>
<trip id="138" depart="30.663600000000002" fromJunction="4way_33" toJunction="3way_54"/>
<trip id="139" depart="30.8858" fromJunction="3way_2" toJunction="4way_57"/>
<trip id="140" depart="31.108" fromJunction="3way_53" toJunction="3way_18"/>
<trip id="141" depart="31.3302" fromJunction="4way_20" toJunction="4way_61"/>
<trip id="142" depart="31.552400000000002" fromJunction="4way_13" toJunction="4way_38"/>
<trip id="143" depart="31.7746" fromJunction="3way_44" toJunction="4way_10"/>
<trip id="144" depart="31.9968" fromJunction="3way_79" toJunction="4way_15"/>
<trip id="145" depart="32.219" fromJunction="3way_76" toJunction="4way_47"/>
<trip id="146" depart="32.4412" fromJunction="4way_42" toJunction="3way_17"/>
<trip id="147" depart="32.6634" fromJunction="4way_43" toJunction="4way_52"/>
<trip id="148" depart="32.885600000000004" fromJunction="4way_41" toJunction="4way_69"/>
<trip id="149" depart="33.107800000000005" fromJunction="3way_7" toJunction="3way_27"/>
<trip id="150" depart="33.33" fromJunction="3way_76" toJunction="4way_37"/>
<trip id="151" depart="33.5522" fromJunction="3way_5" toJunction="3way_44"/>
<trip id="152" depart="33.7744" fromJunction="3way_1" toJunction="4way_67"/>
<trip id="153" depart="33.9966" fromJunction="3way_53" toJunction="4way_41"/>
<trip id="154" depart="34.2188" fromJunction="3way_75" toJunction="4way_31"/>
<trip id="155" depart="34.441" fromJunction="4way_12" toJunction="4way_46"/>
<trip id="156" depart="34.6632" fromJunction="4way_67" toJunction="4way_42"/>
<trip id="157" depart="34.885400000000004" fromJunction="3way_44" toJunction="3way_73"/>
<trip id="158" depart="35.1076" fromJunction="3way_45" toJunction="3way_5"/>
<trip id="159" depart="35.3298" fromJunction="4way_11" toJunction="3way_73"/>
<trip id="160" depart="35.552" fromJunction="4way_49" toJunction="4way_40"/>
<trip id="161" depart="35.7742" fromJunction="4way_19" toJunction="3way_63"/>
<trip id="162" depart="35.9964" fromJunction="4way_50" toJunction="3way_71"/>
<trip id="163" depart="36.2186" fromJunction="4way_49" toJunction="3way_5"/>
<trip id="164" depart="36.4408" fromJunction="4way_10" toJunction="3way_74"/>
<trip id="165" depart="36.663000000000004" fromJunction="3way_63" toJunction="4way_39"/>
<trip id="166" depart="36.885200000000005" fromJunction="3way_78" toJunction="4way_10"/>
<trip id="167" depart="37.1074" fromJunction="3way_4" toJunction="4way_11"/>
<trip id="168" depart="37.3296" fromJunction="3way_6" toJunction="4way_59"/>
<trip id="169" depart="37.5518" fromJunction="3way_45" toJunction="4way_47"/>
<trip id="170" depart="37.774" fromJunction="4way_43" toJunction="4way_30"/>
<trip id="171" depart="37.9962" fromJunction="3way_3" toJunction="4way_13"/>
<trip id="172" depart="38.2184" fromJunction="4way_47" toJunction="4way_55"/>
<trip id="173" depart="38.4406" fromJunction="4way_40" toJunction="4way_65"/>
<trip id="174" depart="38.662800000000004" fromJunction="3way_35" toJunction="3way_63"/>
<trip id="175" depart="38.885" fromJunction="4way_43" toJunction="4way_28"/>
<trip id="176" depart="39.1072" fromJunction="4way_69" toJunction="3way_79"/>
<trip id="177" depart="39.3294" fromJunction="4way_11" toJunction="4way_65"/>
<trip id="178" depart="39.5516" fromJunction="4way_11" toJunction="4way_51"/>
<trip id="179" depart="39.7738" fromJunction="4way_28" toJunction="4way_67"/>
<trip id="180" depart="39.996" fromJunction="4way_49" toJunction="4way_69"/>
<trip id="181" depart="40.2182" fromJunction="3way_27" toJunction="4way_49"/>
<trip id="182" depart="40.440400000000004" fromJunction="4way_66" toJunction="4way_32"/>
<trip id="183" depart="40.662600000000005" fromJunction="3way_62" toJunction="3way_75"/>
<trip id="184" depart="40.8848" fromJunction="4way_43" toJunction="4way_59"/>
<trip id="185" depart="41.107" fromJunction="4way_39" toJunction="4way_11"/>
<trip id="186" depart="41.3292" fromJunction="4way_11" toJunction="4way_42"/>
<trip id="187" depart="41.5514" fromJunction="4way_30" toJunction="4way_43"/>
<trip id="188" depart="41.7736" fromJunction="4way_69" toJunction="4way_15"/>
<trip id="189" depart="41.9958" fromJunction="3way_62" toJunction="4way_68"/>
<trip id="190" depart="42.218" fromJunction="4way_28" toJunction="4way_66"/>
<trip id="191" depart="42.440200000000004" fromJunction="4way_46" toJunction="3way_5"/>
<trip id="192" depart="42.662400000000005" fromJunction="4way_33" toJunction="3way_74"/>
<trip id="193" depart="42.8846" fromJunction="4way_43" toJunction="3way_3"/>
<trip id="194" depart="43.1068" fromJunction="3way_79" toJunction="3way_2"/>
<trip id="195" depart="43.329" fromJunction="4way_25" toJunction="4way_28"/>
<trip id="196" depart="43.5512" fromJunction="4way_34" toJunction="3way_17"/>
<trip id="197" depart="43.7734" fromJunction="4way_64" toJunction="4way_42"/>
<trip id="198" depart="43.9956" fromJunction="3way_76" toJunction="3way_27"/>
<trip id="199" depart="44.217800000000004" fromJunction="3way_3" toJunction="4way_57"/>
<trip id="200" depart="44.440000000000005" fromJunction="4way_55" toJunction="3way_2"/>
<trip id="201" depart="44.6622" fromJunction="3way_74" toJunction="3way_6"/>
<trip id="202" depart="44.8844" fromJunction="3way_74" toJunction="3way_76"/>
<trip id="203" depart="45.1066" fromJunction="3way_1" toJunction="3way_44"/>
<trip id="204" depart="45.3288" fromJunction="4way_57" toJunction="3way_26"/>
<trip id="205" depart="45.551" fromJunction="4way_70" toJunction="4way_61"/>
<trip id="206" depart="45.7732" fromJunction="3way_62" toJunction="4way_37"/>
<trip id="207" depart="45.995400000000004" fromJunction="4way_29" toJunction="4way_13"/>
<trip id="208" depart="46.217600000000004" fromJunction="3way_6" toJunction="4way_70"/>
<trip id="209" depart="46.439800000000005" fromJunction="3way_54" toJunction="4way_50"/>
<trip id="210" depart="46.662" fromJunction="4way_31" toJunction="3way_75"/>
<trip id="211" depart="46.8842" fromJunction="4way_31" toJunction="3way_75"/>
<trip id="212" depart="47.1064" fromJunction="4way_46" toJunction="4way_47"/>
<trip id="213" depart="47.3286" fromJunction="3way_54" toJunction="4way_12"/>
<trip id="214" depart="47.5508" fromJunction="4way_37" toJunction="4way_58"/>
<trip id="215" depart="47.773" fromJunction="4way_15" toJunction="3way_9"/>
<trip id="216" depart="47.995200000000004" fromJunction="3way_4" toJunction="4way_25"/>
<trip id="217" depart="48.217400000000005" fromJunction="3way_18" toJunction="3way_76"/>
<trip id="218" depart="48.4396" fromJunction="4way_61" toJunction="4way_68"/>
<trip id="219" depart="48.6618" fromJunction="4way_69" toJunction="4way_52"/>
<trip id="220" depart="48.884" fromJunction="4way_70" toJunction="3way_54"/>
<trip id="221" depart="49.1062" fromJunction="3way_26" toJunction="3way_74"/>
<trip id="222" depart="49.3284" fromJunction="3way_76" toJunction="4way_43"/>
<trip id="223" depart="49.5506" fromJunction="3way_5" toJunction="4way_49"/>
<trip id="224" depart="49.772800000000004" fromJunction="4way_51" toJunction="4way_14"/>
<trip id="225" depart="49.995000000000005" fromJunction="4way_19" toJunction="3way_73"/>
<trip id="226" depart="50.217200000000005" fromJunction="4way_23" toJunction="4way_10"/>
<trip id="227" depart="50.4394" fromJunction="3way_71" toJunction="3way_75"/>
<trip id="228" depart="50.6616" fromJunction="3way_45" toJunction="4way_64"/>
<trip id="229" depart="50.8838" fromJunction="3way_75" toJunction="4way_24"/>
<trip id="230" depart="51.106" fromJunction="4way_34" toJunction="4way_38"/>
<trip id="231" depart="51.3282" fromJunction="4way_42" toJunction="4way_66"/>
<trip id="232" depart="51.5504" fromJunction="4way_23" toJunction="4way_34"/>
<trip id="233" depart="51.772600000000004" fromJunction="4way_52" toJunction="4way_49"/>
<trip id="234" depart="51.994800000000005" fromJunction="4way_64" toJunction="4way_70"/>
<trip id="235" depart="52.217" fromJunction="3way_54" toJunction="3way_6"/>
<trip id="236" depart="52.4392" fromJunction="4way_46" toJunction="3way_53"/>
<trip id="237" depart="52.6614" fromJunction="4way_48" toJunction="3way_44"/>
<trip id="238" depart="52.8836" fromJunction="4way_60" toJunction="4way_19"/>
<trip id="239" depart="53.1058" fromJunction="4way_12" toJunction="4way_52"/>
<trip id="240" depart="53.328" fromJunction="4way_39" toJunction="3way_63"/>
<trip id="241" depart="53.550200000000004" fromJunction="4way_37" toJunction="4way_69"/>
<trip id="242" depart="53.772400000000005" fromJunction="3way_73" toJunction="4way_12"/>
<trip id="243" depart="53.994600000000005" fromJunction="4way_28" toJunction="4way_11"/>
<trip id="244" depart="54.2168" fromJunction="4way_38" toJunction="3way_74"/>
<trip id="245" depart="54.439" fromJunction="4way_10" toJunction="3way_45"/>
<trip id="246" depart="54.6612" fromJunction="4way_23" toJunction="4way_56"/>
<trip id="247" depart="54.8834" fromJunction="4way_25" toJunction="3way_27"/>
<trip id="248" depart="55.1056" fromJunction="3way_4" toJunction="4way_42"/>
<trip id="249" depart="55.3278" fromJunction="4way_64" toJunction="3way_74"/>
<trip id="250" depart="55.550000000000004" fromJunction="3way_18" toJunction="3way_26"/>
<trip id="251" depart="55.772200000000005" fromJunction="4way_40" toJunction="4way_14"/>
<trip id="252" depart="55.9944" fromJunction="4way_58" toJunction="4way_57"/>
<trip id="253" depart="56.2166" fromJunction="3way_18" toJunction="3way_78"/>
<trip id="254" depart="56.4388" fromJunction="4way_51" toJunction="4way_40"/>
<trip id="255" depart="56.661" fromJunction="3way_63" toJunction="4way_65"/>
<trip id="256" depart="56.8832" fromJunction="4way_58" toJunction="3way_3"/>
<trip id="257" depart="57.1054" fromJunction="4way_10" toJunction="3way_1"/>
<trip id="258" depart="57.327600000000004" fromJunction="4way_25" toJunction="4way_56"/>
<trip id="259" depart="57.549800000000005" fromJunction="4way_37" toJunction="3way_7"/>
<trip id="260" depart="57.772000000000006" fromJunction="3way_18" toJunction="3way_2"/>
<trip id="261" depart="57.9942" fromJunction="3way_63" toJunction="4way_57"/>
<trip id="262" depart="58.2164" fromJunction="3way_26" toJunction="3way_77"/>
<trip id="263" depart="58.4386" fromJunction="4way_49" toJunction="4way_30"/>
<trip id="264" depart="58.6608" fromJunction="4way_43" toJunction="4way_31"/>
<trip id="265" depart="58.883" fromJunction="4way_13" toJunction="3way_1"/>
<trip id="266" depart="59.1052" fromJunction="4way_39" toJunction="4way_48"/>
<trip id="267" depart="59.327400000000004" fromJunction="3way_2" toJunction="4way_52"/>
<trip id="268" depart="59.549600000000005" fromJunction="4way_68" toJunction="4way_49"/>
<trip id="269" depart="59.7718" fromJunction="3way_27" toJunction="4way_47"/>
<trip id="270" depart="59.994" fromJunction="3way_17" toJunction="4way_50"/>
<trip id="271" depart="60.2162" fromJunction="4way_56" toJunction="4way_64"/>
<trip id="272" depart="60.4384" fromJunction="3way_7" toJunction="4way_49"/>
<trip id="273" depart="60.6606" fromJunction="4way_37" toJunction="3way_76"/>
<trip id="274" depart="60.8828" fromJunction="4way_60" toJunction="4way_57"/>
<trip id="275" depart="61.105000000000004" fromJunction="3way_44" toJunction="4way_57"/>
<trip id="276" depart="61.327200000000005" fromJunction="4way_51" toJunction="4way_61"/>
<trip id="277" depart="61.549400000000006" fromJunction="4way_25" toJunction="4way_38"/>
<trip id="278" depart="61.7716" fromJunction="4way_25" toJunction="4way_65"/>
<trip id="279" depart="61.9938" fromJunction="4way_52" toJunction="4way_15"/>
<trip id="280" depart="62.216" fromJunction="3way_3" toJunction="4way_16"/>
<trip id="281" depart="62.4382" fromJunction="4way_19" toJunction="3way_71"/>
<trip id="282" depart="62.6604" fromJunction="3way_45" toJunction="4way_43"/>
<trip id="283" depart="62.882600000000004" fromJunction="4way_60" toJunction="3way_62"/>
<trip id="284" depart="63.104800000000004" fromJunction="4way_69" toJunction="4way_64"/>
<trip id="285" depart="63.327000000000005" fromJunction="4way_22" toJunction="3way_62"/>
<trip id="286" depart="63.5492" fromJunction="3way_6" toJunction="4way_55"/>
<trip id="287" depart="63.7714" fromJunction="3way_74" toJunction="4way_49"/>
<trip id="288" depart="63.9936" fromJunction="3way_5" toJunction="3way_4"/>
<trip id="289" depart="64.2158" fromJunction="4way_69" toJunction="3way_5"/>
<trip id="290" depart="64.438" fromJunction="4way_69" toJunction="4way_14"/>
<trip id="291" depart="64.6602" fromJunction="4way_56" toJunction="4way_31"/>
<trip id="292" depart="64.8824" fromJunction="4way_70" toJunction="3way_45"/>
<trip id="293" depart="65.1046" fromJunction="4way_20" toJunction="3way_9"/>
<trip id="294" depart="65.3268" fromJunction="4way_61" toJunction="4way_19"/>
<trip id="295" depart="65.549" fromJunction="3way_27" toJunction="3way_71"/>
<trip id="296" depart="65.77120000000001" fromJunction="3way_5" toJunction="4way_40"/>
<trip id="297" depart="65.99340000000001" fromJunction="4way_20" toJunction="4way_48"/>
<trip id="298" depart="66.21560000000001" fromJunction="3way_75" toJunction="3way_63"/>
<trip id="299" depart="66.4378" fromJunction="4way_10" toJunction="4way_47"/>
<trip id="300" depart="66.66" fromJunction="3way_27" toJunction="4way_11"/>
<trip id="301" depart="66.8822" fromJunction="3way_44" toJunction="4way_52"/>
<trip id="302" depart="67.1044" fromJunction="3way_18" toJunction="3way_17"/>
<trip id="303" depart="67.3266" fromJunction="4way_22" toJunction="4way_39"/>
<trip id="304" depart="67.5488" fromJunction="4way_70" toJunction="4way_28"/>
<trip id="305" depart="67.771" fromJunction="4way_67" toJunction="3way_9"/>
<trip id="306" depart="67.9932" fromJunction="4way_68" toJunction="4way_13"/>
<trip id="307" depart="68.2154" fromJunction="4way_60" toJunction="4way_61"/>
<trip id="308" depart="68.4376" fromJunction="4way_49" toJunction="4way_32"/>
<trip id="309" depart="68.6598" fromJunction="3way_53" toJunction="3way_27"/>
<trip id="310" depart="68.882" fromJunction="3way_75" toJunction="3way_5"/>
<trip id="311" depart="69.1042" fromJunction="4way_56" toJunction="4way_55"/>
<trip id="312" depart="69.3264" fromJunction="4way_43" toJunction="4way_41"/>
<trip id="313" depart="69.54860000000001" fromJunction="3way_26" toJunction="3way_35"/>
<trip id="314" depart="69.77080000000001" fromJunction="4way_23" toJunction="4way_39"/>
<trip id="315" depart="69.99300000000001" fromJunction="4way_34" toJunction="4way_33"/>
<trip id="316" depart="70.2152" fromJunction="4way_28" toJunction="4way_61"/>
<trip id="317" depart="70.4374" fromJunction="3way_53" toJunction="4way_19"/>
<trip id="318" depart="70.6596" fromJunction="4way_22" toJunction="4way_40"/>
<trip id="319" depart="70.8818" fromJunction="3way_17" toJunction="4way_42"/>
<trip id="320" depart="71.104" fromJunction="4way_30" toJunction="4way_38"/>
<trip id="321" depart="71.3262" fromJunction="3way_71" toJunction="3way_75"/>
<trip id="322" depart="71.5484" fromJunction="3way_5" toJunction="4way_42"/>
<trip id="323" depart="71.7706" fromJunction="3way_26" toJunction="4way_20"/>
<trip id="324" depart="71.9928" fromJunction="4way_61" toJunction="4way_11"/>
<trip id="325" depart="72.215" fromJunction="4way_33" toJunction="4way_46"/>
<trip id="326" depart="72.4372" fromJunction="3way_73" toJunction="3way_35"/>
<trip id="327" depart="72.6594" fromJunction="4way_28" toJunction="4way_37"/>
<trip id="328" depart="72.8816" fromJunction="3way_18" toJunction="4way_31"/>
<trip id="329" depart="73.1038" fromJunction="4way_13" toJunction="4way_58"/>
<trip id="330" depart="73.32600000000001" fromJunction="4way_55" toJunction="4way_28"/>
<trip id="331" depart="73.54820000000001" fromJunction="3way_6" toJunction="4way_57"/>
<trip id="332" depart="73.77040000000001" fromJunction="4way_22" toJunction="4way_15"/>
<trip id="333" depart="73.9926" fromJunction="4way_65" toJunction="4way_67"/>
<trip id="334" depart="74.2148" fromJunction="4way_37" toJunction="3way_26"/>
<trip id="335" depart="74.437" fromJunction="3way_36" toJunction="4way_37"/>
<trip id="336" depart="74.6592" fromJunction="4way_14" toJunction="3way_3"/>
<trip id="337" depart="74.8814" fromJunction="4way_48" toJunction="3way_26"/>
<trip id="338" depart="75.1036" fromJunction="4way_66" toJunction="4way_58"/>
<trip id="339" depart="75.3258" fromJunction="3way_17" toJunction="4way_43"/>
<trip id="340" depart="75.548" fromJunction="3way_3" toJunction="4way_42"/>
<trip id="341" depart="75.7702" fromJunction="4way_37" toJunction="4way_65"/>
<trip id="342" depart="75.9924" fromJunction="4way_10" toJunction="4way_56"/>
<trip id="343" depart="76.2146" fromJunction="3way_2" toJunction="3way_79"/>
<trip id="344" depart="76.4368" fromJunction="4way_24" toJunction="4way_47"/>
<trip id="345" depart="76.659" fromJunction="3way_76" toJunction="4way_10"/>
<trip id="346" depart="76.8812" fromJunction="3way_17" toJunction="3way_76"/>
<trip id="347" depart="77.10340000000001" fromJunction="3way_6" toJunction="3way_73"/>
<trip id="348" depart="77.32560000000001" fromJunction="4way_33" toJunction="3way_6"/>
<trip id="349" depart="77.54780000000001" fromJunction="4way_21" toJunction="3way_62"/>
<trip id="350" depart="77.77" fromJunction="4way_11" toJunction="4way_41"/>
<trip id="351" depart="77.9922" fromJunction="3way_78" toJunction="3way_53"/>
<trip id="352" depart="78.2144" fromJunction="4way_56" toJunction="4way_55"/>
<trip id="353" depart="78.4366" fromJunction="4way_50" toJunction="3way_18"/>
<trip id="354" depart="78.6588" fromJunction="4way_25" toJunction="4way_23"/>
<trip id="355" depart="78.881" fromJunction="4way_60" toJunction="3way_3"/>
<trip id="356" depart="79.1032" fromJunction="4way_51" toJunction="4way_28"/>
<trip id="357" depart="79.3254" fromJunction="4way_70" toJunction="4way_49"/>
<trip id="358" depart="79.5476" fromJunction="4way_10" toJunction="4way_32"/>
<trip id="359" depart="79.7698" fromJunction="4way_10" toJunction="4way_38"/>
<trip id="360" depart="79.992" fromJunction="3way_73" toJunction="4way_10"/>
<trip id="361" depart="80.2142" fromJunction="4way_40" toJunction="4way_38"/>
<trip id="362" depart="80.4364" fromJunction="4way_56" toJunction="3way_63"/>
<trip id="363" depart="80.6586" fromJunction="3way_62" toJunction="3way_35"/>
<trip id="364" depart="80.88080000000001" fromJunction="4way_52" toJunction="3way_4"/>
<trip id="365" depart="81.10300000000001" fromJunction="3way_71" toJunction="3way_1"/>
<trip id="366" depart="81.32520000000001" fromJunction="3way_7" toJunction="4way_57"/>
<trip id="367" depart="81.5474" fromJunction="4way_67" toJunction="4way_51"/>
<trip id="368" depart="81.7696" fromJunction="4way_47" toJunction="4way_52"/>
<trip id="369" depart="81.9918" fromJunction="4way_12" toJunction="3way_45"/>
<trip id="370" depart="82.214" fromJunction="4way_56" toJunction="4way_25"/>
<trip id="371" depart="82.4362" fromJunction="4way_51" toJunction="3way_73"/>
<trip id="372" depart="82.6584" fromJunction="3way_1" toJunction="4way_10"/>