<routes xmlns:xsi="http://www.w3.org/2001/XMLSchema-instance" xsi:noNamespaceSchemaLocation="http://sumo.dlr.de/xsd/routes_file.xsd">
<trip id="0" depart="0.0" fromJunction="4way_54" toJunction="4way_81"/>
<trip id="1" depart="0.2051" fromJunction="4way_66" toJunction="4way_67"/>
<trip id="2" depart="0.4102" fromJunction="4way_202" toJunction="4way_49"/>
<trip id="3" depart="0.6153" fromJunction="4way_57" toJunction="4way_94"/>
<trip id="4" depart="0.8204" fromJunction="4way_108" toJunction="4way_88"/>
<trip id="5" depart="1.0255" fromJunction="4way_200" toJunction="4way_100"/>
<trip id="6" depart="1.2306" fromJunction="4way_162" toJunction="4way_141"/>
<trip id="7" depart="1.4357" fromJunction="3way_119" toJunction="3way_59"/>
<trip id="8" depart="1.6408" fromJunction="4way_56" toJunction="3way_5"/>
<trip id="9" depart="1.8459" fromJunction="4way_176" toJunction="4way_55"/>
<trip id="10" depart="2.051" fromJunction="4way_130" toJunction="4way_148"/>
<trip id="11" depart="2.2561" fromJunction="4way_70" toJunction="4way_169"/>
<trip id="12" depart="2.4612" fromJunction="4way_187" toJunction="3way_223"/>
<trip id="13" depart="2.6663" fromJunction="4way_28" toJunction="3way_218"/>
<trip id="14" depart="2.8714" fromJunction="4way_19" toJunction="4way_185"/>
<trip id="15" depart="3.0765000000000002" fromJunction="4way_55" toJunction="4way_106"/>
<trip id="16" depart="3.2816" fromJunction="4way_141" toJunction="4way_154"/>
<trip id="17" depart="3.4867" fromJunction="4way_112" toJunction="3way_5"/>
<trip id="18" depart="3.6918" fromJunction="4way_112" toJunction="4way_97"/>
<trip id="19" depart="3.8969" fromJunction="4way_128" toJunction="4way_28"/>
<trip id="20" depart="4.102" fromJunction="4way_94" toJunction="4way_33"/>
<trip id="21" depart="4.3071" fromJunction="3way_29" toJunction="4way_188"/>
<trip id="22" depart="4.5122" fromJunction="4way_98" toJunction="4way_83"/>
<trip id="23" depart="4.7173" fromJunction="3way_221" toJunction="3way_90"/>
<trip id="24" depart="4.9224" fromJunction="4way_48" toJunction="4way_77"/>
<trip id="25" depart="5.1275" fromJunction="4way_94" toJunction="4way_156"/>
<trip id="26" depart="5.3326" fromJunction="3way_164" toJunction="4way_178"/>
<trip id="27" depart="5.5377" fromJunction="3way_214" toJunction="3way_90"/>
<trip id="28" depart="5.7428" fromJunction="4way_61" toJunction="4way_38"/>
<trip id="29" depart="5.9479" fromJunction="4way_46" toJunction="4way_199"/>
<trip id="30" depart="6.1530000000000005" fromJunction="3way_194" toJunction="3way_214"/>
<trip id="31" depart="6.3581" fromJunction="3way_219" toJunction="4way_53"/>
<trip id="32" depart="6.5632" fromJunction="4way_63" toJunction="3way_135"/>
<trip id="33" depart="6.7683" fromJunction="3way_149" toJunction="4way_205"/>
<trip id="34" depart="6.9734" fromJunction="3way_149" toJunction="4way_71"/>
<trip id="35" depart="7.1785000000000005" fromJunction="4way_199" toJunction="4way_133"/>
<trip id="36" depart="7.3836" fromJunction="4way_67" toJunction="4way_133"/>
<trip id="37" depart="7.5887" fromJunction="3way_9" toJunction="4way_129"/>
<trip id="38" depart="7.7938" fromJunction="3way_223" toJunction="4way_166"/>
<trip id="39" depart="7.9989" fromJunction="3way_223" toJunction="4way_17"/>
<trip id="40" depart="8.204" fromJunction="4way_19" toJunction="4way_92"/>
<trip id="41" depart="8.4091" fromJunction="4way_173" toJunction="3way_44"/>
<trip id="42" depart="8.6142" fromJunction="4way_106" toJunction="4way_141"/>
<trip id="43" depart="8.8193" fromJunction="3way_134" toJunction="4way_185"/>
<trip id="44" depart="9.0244" fromJunction="4way_177" toJunction="4way_171"/>
<trip id="45" depart="9.2295" fromJunction="4way_83" toJunction="4way_92"/>
<trip id="46" depart="9.4346" fromJunction="4way_54" toJunction="3way_220"/>
<trip id="47" depart="9.6397" fromJunction="3way_180" toJunction="4way_181"/>
<trip id="48" depart="9.8448" fromJunction="3way_5" toJunction="4way_201"/>
<trip id="49" depart="10.049900000000001" fromJunction="3way_2" toJunction="4way_41"/>
<trip id="50" depart="10.255" fromJunction="4way_121" toJunction="4way_113"/>
<trip id="51" depart="10.4601" fromJunction="4way_88" toJunction="4way_114"/>
<trip id="52" depart="10.6652" fromJunction="4way_171" toJunction="4way_46"/>
<trip id="53" depart="10.8703" fromJunction="4way_156" toJunction="4way_22"/>
<trip id="54" depart="11.0754" fromJunction="4way_58" toJunction="3way_45"/>
<trip id="55" depart="11.2805" fromJunction="4way_101" toJunction="4way_124"/>
<trip id="56" depart="11.4856" fromJunction="4way_17" toJunction="4way_188"/>
<trip id="57" depart="11.6907" fromJunction="4way_153" toJunction="4way_175"/>
<trip id="58" depart="11.8958" fromJunction="4way_186" toJunction="4way_206"/>
<trip id="59" depart="12.100900000000001" fromJunction="4way_173" toJunction="4way_206"/>
<trip id="60" depart="12.306000000000001" fromJunction="4way_110" toJunction="4way_84"/>
<trip id="61" depart="12.5111" fromJunction="4way_202" toJunction="4way_73"/>
<trip id="62" depart="12.7162" fromJunction="4way_82" toJunction="4way_49"/>
<trip id="63" depart="12.9213" fromJunction="4way_32" toJunction="3way_5"/>
<trip id="64" depart="13.1264" fromJunction="4way_196" toJunction="4way_53"/>
<trip id="65" depart="13.3315" fromJunction="4way_64" toJunction="4way_112"/>
<trip id="66" depart="13.5366" fromJunction="4way_17" toJunction="3way_220"/>
<trip id="67" depart="13.7417" fromJunction="4way_22" toJunction="4way_141"/>
<trip id="68" depart="13.9468" fromJunction="4way_38" toJunction="4way_156"/>
<trip id="69" depart="14.1519" fromJunction="4way_79" toJunction="4way_38"/>
<trip id="70" depart="14.357000000000001" fromJunction="4way_63" toJunction="4way_72"/>
<trip id="71" depart="14.562100000000001" fromJunction="4way_57" toJunction="4way_94"/>
<trip id="72" depart="14.7672" fromJunction="4way_203" toJunction="4way_160"/>
<trip id="73" depart="14.9723" fromJunction="4way_147" toJunction="3way_164"/>
<trip id="74" depart="15.1774" fromJunction="4way_208" toJunction="4way_39"/>
<trip id="75" depart="15.3825" fromJunction="4way_161" toJunction="3way_216"/>
<trip id="76" depart="15.5876" fromJunction="4way_112" toJunction="3way_214"/>
<trip id="77" depart="15.7927" fromJunction="4way_101" toJunction="3way_222"/>
<trip id="78" depart="15.9978" fromJunction="4way_141" toJunction="4way_160"/>
<trip id="79" depart="16.2029" fromJunction="3way_59" toJunction="4way_183"/>
<trip id="80" depart="16.408" fromJunction="4way_154" toJunction="4way_188"/>
<trip id="81" depart="16.6131" fromJunction="4way_161" toJunction="4way_69"/>
<trip id="82" depart="16.8182" fromJunction="4way_131" toJunction="4way_133"/>
<trip id="83" depart="17.0233" fromJunction="4way_33" toJunction="3way_3"/>
<trip id="84" depart="17.2284" fromJunction="3way_212" toJunction="4way_99"/>
<trip id="85" depart="17.4335" fromJunction="3way_13" toJunction="4way_185"/>
<trip id="86" depart="17.6386" fromJunction="3way_5" toJunction="3way_120"/>
<trip id="87" depart="17.843700000000002" fromJunction="3way_45" toJunction="4way_115"/>
<trip id="88" depart="18.0488" fromJunction="4way_177" toJunction="4way_182"/>
<trip id="89" depart="18.2539" fromJunction="3way_8" toJunction="4way_203"/>
<trip id="90" depart="18.459" fromJunction="4way_127" toJunction="3way_213"/>
<trip id="91" depart="18.6641" fromJunction="4way_16" toJunction="4way_171"/>
<trip id="92" depart="18.8692" fromJunction="4way_97" toJunction="4way_192"/>
<trip id="93" depart="19.0743" fromJunction="4way_22" toJunction="4way_36"/>
<trip id="94" depart="19.2794" fromJunction="4way_62" toJunction="4way_99"/>
<trip id="95" depart="19.4845" fromJunction="3way_90" toJunction="4way_168"/>
<trip id="96" depart="19.6896" fromJunction="4way_28" toJunction="3way_165"/>
<trip id="97" depart="19.8947" fromJunction="4way_80" toJunction="4way_129"/>
<trip id="98" depart="20.099800000000002" fromJunction="4way_76" toJunction="3way_30"/>
<trip id="99" depart="20.3049" fromJunction="4way_94" toJunction="3way_13"/>
<trip id="100" depart="20.51" fromJunction="4way_173" toJunction="4way_62"/>
<trip id="101" depart="20.7151" fromJunction="3way_195" toJunction="4way_93"/>
<trip id="102" depart="20.9202" fromJunction="3way_44" toJunction="3way_6"/>
<trip id="103" depart="21.1253" fromJunction="4way_154" toJunction="4way_128"/>
<trip id="104" depart="21.3304" fromJunction="4way_72" toJunction="4way_36"/>
<trip id="105" depart="21.5355" fromJunction="3way_75" toJunction="4way_178"/>
<trip id="106" depart="21.7406" fromJunction="4way_106" toJunction="4way_68"/>
<trip id="107" depart="21.945700000000002" fromJunction="4way_189" toJunction="3way_5"/>
<trip id="108" depart="22.1508" fromJunction="4way_108" toJunction="4way_92"/>
<trip id="109" depart="22.355900000000002" fromJunction="4way_41" toJunction="4way_22"/>
<trip id="110" depart="22.561" fromJunction="4way_176" toJunction="4way_157"/>
<trip id="111" depart="22.7661" fromJunction="4way_130" toJunction="4way_136"/>
<trip id="112" depart="22.9712" fromJunction="4way_58" toJunction="3way_165"/>
<trip id="113" depart="23.1763" fromJunction="3way_75" toJunction="4way_143"/>
<trip id="114" depart="23.3814" fromJunction="4way_99" toJunction="4way_43"/>
<trip id="115" depart="23.5865" fromJunction="3way_75" toJunction="4way_76"/>
<trip id="116" depart="23.7916" fromJunction="3way_6" toJunction="4way_170"/>
<trip id="117" depart="23.9967" fromJunction="4way_49" toJunction="3way_105"/>
<trip id="118" depart="24.201800000000002" fromJunction="4way_184" toJunction="4way_78"/>
<trip id="119" depart="24.4069" fromJunction="4way_201" toJunction="4way_151"/>
<trip id="120" depart="24.612000000000002" fromJunction="3way_209" toJunction="4way_146"/>
<trip id="121" depart="24.8171" fromJunction="3way_220" toJunction="4way_170"/>
<trip id="122" depart="25.0222" fromJunction="4way_153" toJunction="4way_54"/>
<trip id="123" depart="25.2273" fromJunction="3way_180" toJunction="4way_126"/>
<trip id="124" depart="25.4324" fromJunction="4way_65" toJunction="3way_217"/>
<trip id="125" depart="25.6375" fromJunction="4way_207" toJunction="4way_18"/>
<trip id="126" depart="25.8426" fromJunction="4way_159" toJunction="4way_25"/>
<trip id="127" depart="26.0477" fromJunction="3way_104" toJunction="4way_87"/>
<trip id="128" depart="26.2528" fromJunction="4way_201" toJunction="4way_96"/>
<trip id="129" depart="26.457900000000002" fromJunction="4way_196" toJunction="4way_88"/>
<trip id="130" depart="26.663" fromJunction="3way_164" toJunction="4way_31"/>
<trip id="131" depart="26.868100000000002" fromJunction="4way_177" toJunction="3way_4"/>
<trip id="132" depart="27.0732" fromJunction="4way_85" toJunction="4way_98"/>
<trip id="133" depart="27.2783" fromJunction="4way_201" toJunction="4way_166"/>
<trip id="134" depart="27.4834" fromJunction="4way_65" toJunction="3way_44"/>
<trip id="135" depart="27.6885" fromJunction="4way_191" toJunction="4way_148"/>
<trip id="136" depart="27.8936" fromJunction="4way_88" toJunction="4way_152"/>
<trip id="137" depart="28.0987" fromJunction="4way_43" toJunction="3way_15"/>
<trip id="138" depart="28.3038" fromJunction="4way_130" toJunction="4way_28"/>
<trip id="139" depart="28.5089" fromJunction="4way_191" toJunction="4way_157"/>
<trip id="140" depart="28.714000000000002" fromJunction="4way_101" toJunction="4way_196"/>
<trip id="141" depart="28.9191" fromJunction="3way_3" toJunction="4way_112"/>
<trip id="142" depart="29.124200000000002" fromJunction="3way_217" toJunction="4way_182"/>
<trip id="143" depart="29.3293" fromJunction="4way_35" toJunction="4way_148"/>
<trip id="144" depart="29.5344" fromJunction="4way_187" toJunction="4way_95"/>
<trip id="145" depart="29.7395" fromJunction="3way_219" toJunction="4way_63"/>
<trip id="146" depart="29.9446" fromJunction="3way_165" toJunction="4way_205"/>
<trip id="147" depart="30.1497" fromJunction="3way_45" toJunction="4way_155"/>
<trip id="148" depart="30.3548" fromJunction="4way_146" toJunction="3way_149"/>
<trip id="149" depart="30.5599" fromJunction="4way_88" toJunction="4way_133"/>
<trip id="150" depart="30.765" fromJunction="4way_55" toJunction="4way_102"/>
<trip id="151" depart="30.970100000000002" fromJunction="3way_89" toJunction="4way_137"/>
<trip id="152" depart="31.1752" fromJunction="3way_15" toJunction="4way_198"/>
<trip id="153" depart="31.380300000000002" fromJunction="3way_12" toJunction="3way_220"/>
<trip id="154" depart="31.5854" fromJunction="3way_3" toJunction="4way_84"/>
<trip id="155" depart="31.7905" fromJunction="3way_217" toJunction="4way_40"/>
<trip id="156" depart="31.9956" fromJunction="3way_119" toJunction="3way_89"/>
<trip id="157" depart="32.2007" fromJunction="4way_46" toJunction="4way_98"/>
<trip id="158" depart="32.4058" fromJunction="4way_111" toJunction="4way_34"/>
<trip id="159" depart="32.6109" fromJunction="4way_84" toJunction="4way_146"/>
<trip id="160" depart="32.816" fromJunction="3way_220" toJunction="4way_121"/>
<trip id="161" depart="33.021100000000004" fromJunction="4way_32" toJunction="3way_13"/>
<trip id="162" depart="33.2262" fromJunction="4way_154" toJunction="4way_91"/>
<trip id="163" depart="33.4313" fromJunction="4way_173" toJunction="4way_143"/>
<trip id="164" depart="33.6364" fromJunction="4way_93" toJunction="4way_166"/>
<trip id="165" depart="33.8415" fromJunction="4way_100" toJunction="3way_180"/>
<trip id="166" depart="34.0466" fromJunction="4way_188" toJunction="3way_13"/>
<trip id="167" depart="34.2517" fromJunction="4way_55" toJunction="4way_70"/>
<trip id="168" depart="34.4568" fromJunction="4way_78" toJunction="4way_91"/>
<trip id="169" depart="34.6619" fromJunction="4way_136" toJunction="4way_201"/>
<trip id="170" depart="34.867" fromJunction="3way_135" toJunction="4way_63"/>
<trip id="171" depart="35.0721" fromJunction="3way_10" toJunction="4way_169"/>
<trip id="172" depart="35.2772" fromJunction="3way_89" toJunction="4way_130"/>
<trip id="173" depart="35.4823" fromJunction="4way_47" toJunction="4way_170"/>
<trip id="174" depart="35.687400000000004" fromJunction="4way_88" toJunction="4way_171"/>
<trip id="175" depart="35.8925" fromJunction="3way_8" toJunction="4way_202"/>
<trip id="176" depart="36.0976" fromJunction="4way_140" toJunction="4way_79"/>
<trip id="177" depart="36.3027" fromJunction="4way_128" toJunction="4way_36"/>
<trip id="178" depart="36.5078" fromJunction="3way_221" toJunction="4way_151"/>
<trip id="179" depart="36.7129" fromJunction="4way_73" toJunction="4way_138"/>
<trip id="180" depart="36.918" fromJunction="4way_87" toJunction="3way_165"/>
<trip id="181" depart="37.1231" fromJunction="4way_154" toJunction="4way_66"/>
<trip id="182" depart="37.3282" fromJunction="4way_169" toJunction="4way_206"/>
<trip id="183" depart="37.533300000000004" fromJunction="4way_168" toJunction="4way_84"/>
<trip id="184" depart="37.7384" fromJunction="4way_158" toJunction="4way_87"/>
<trip id="185" depart="37.9435" fromJunction="4way_122" toJunction="4way_188"/>
<trip id="186" depart="38.1486" fromJunction="4way_172" toJunction="4way_189"/>
<trip id="187" depart="38.3537" fromJunction="3way_214" toJunction="4way_31"/>
<trip id="188" depart="38.5588" fromJunction="4way_73" toJunction="4way_130"/>
<trip id="189" depart="38.7639" fromJunction="4way_22" toJunction="4way_169"/>
<trip id="190" depart="38.969" fromJunction="4way_169" toJunction="4way_131"/>
<trip id="191" depart="39.1741" fromJunction="4way_171" toJunction="4way_58"/>
<trip id="192" depart="39.3792" fromJunction="4way_102" toJunction="4way_205"/>
<trip id="193" depart="39.5843" fromJunction="3way_214" toJunction="4way_190"/>
<trip id="194" depart="39.7894" fromJunction="4way_168" toJunction="4way_142"/>
<trip id="195" depart="39.9945" fromJunction="4way_49" toJunction="3way_29"/>
<trip id="196" depart="40.199600000000004" fromJunction="4way_101" toJunction="4way_91"/>
<trip id="197" depart="40.4047" fromJunction="4way_73" toJunction="3way_8"/>
<trip id="198" depart="40.6098" fromJunction="3way_180" toJunction="3way_4"/>
<trip id="199" depart="40.8149" fromJunction="4way_177" toJunction="4way_168"/>
<trip id="200" depart="41.02" fromJunction="4way_28" toJunction="3way_164"/>
<trip id="201" depart="41.2251" fromJunction="4way_154" toJunction="4way_176"/>
<trip id="202" depart="41.4302" fromJunction="3way_15" toJunction="4way_122"/>
<trip id="203" depart="41.6353" fromJunction="3way_8" toJunction="4way_97"/>
<trip id="204" depart="41.8404" fromJunction="4way_64" toJunction="3way_4"/>
<trip id="205" depart="42.045500000000004" fromJunction="4way_61" toJunction="3way_59"/>
<trip id="206" depart="42.2506" fromJunction="4way_61" toJunction="3way_60"/>
<trip id="207" depart="42.4557" fromJunction="3way_3" toJunction="3way_221"/>
<trip id="208" depart="42.6608" fromJunction="4way_112" toJunction="3way_209"/>
<trip id="209" depart="42.8659" fromJunction="4way_178" toJunction="4way_133"/>
<trip id="210" depart="43.071" fromJunction="3way_213" toJunction="4way_198"/>
<trip id="211" depart="43.2761" fromJunction="4way_80" toJunction="4way_187"/>
<trip id="212" depart="43.4812" fromJunction="3way_44" toJunction="4way_178"/>
<trip id="213" depart="43.6863" fromJunction="4way_181" toJunction="4way_85"/>
<trip id="214" depart="43.891400000000004" fromJunction="4way_68" toJunction="4way_31"/>
<trip id="215" depart="44.0965" fromJunction="4way_83" toJunction="4way_46"/>
<trip id="216" depart="44.3016" fromJunction="4way_49" toJunction="4way_170"/>
<trip id="217" depart="44.5067" fromJunction="4way_181" toJunction="4way_96"/>
<trip id="218" depart="44.711800000000004" fromJunction="4way_19" toJunction="4way_24"/>
<trip id="219" depart="44.9169" fromJunction="4way_41" toJunction="4way_33"/>
<trip id="220" depart="45.122" fromJunction="3way_11" toJunction="4way_162"/>
<trip id="221" depart="45.3271" fromJunction="4way_197" toJunction="3way_15"/>
<trip id="222" depart="45.5322" fromJunction="4way_163" toJunction="4way_190"/>
<trip id="223" depart="45.7373" fromJunction="4way_87" toJunction="4way_118"/>
<trip id="224" depart="45.9424" fromJunction="4way_193" toJunction="4way_17"/>
<trip id="225" depart="46.1475" fromJunction="3way_179" toJunction="4way_61"/>
<trip id="226" depart="46.3526" fromJunction="3way_15" toJunction="4way_58"/>
<trip id="227" depart="46.557700000000004" fromJunction="3way_13" toJunction="4way_158"/>
<trip id="228" depart="46.7628" fromJunction="4way_206" toJunction="4way_99"/>
<trip id="229" depart="46.9679" fromJunction="4way_93" toJunction="4way_136"/>
<trip id="230" depart="47.173" fromJunction="4way_159" toJunction="4way_78"/>
<trip id="231" depart="47.3781" fromJunction="3way_212" toJunction="4way_16"/>
<trip id="232" depart="47.5832" fromJunction="4way_47" toJunction="4way_139"/>
<trip id="233" depart="47.7883" fromJunction="4way_16" toJunction="4way_71"/>
<trip id="234" depart="47.9934" fromJunction="4way_28" toJunction="4way_125"/>
<trip id="235" depart="48.1985" fromJunction="4way_161" toJunction="4way_172"/>
<trip id="236" depart="48.403600000000004" fromJunction="4way_159" toJunction="4way_207"/>
<trip id="237" depart="48.6087" fromJunction="4way_103" toJunction="4way_188"/>
<trip id="238" depart="48.8138" fromJunction="4way_139" toJunction="4way_193"/>
<trip id="239" depart="49.0189" fromJunction="4way_196" toJunction="3way_59"/>
<trip id="240" depart="49.224000000000004" fromJunction="4way_34" toJunction="3way_216"/>
<trip id="241" depart="49.4291" fromJunction="4way_67" toJunction="3way_220"/>
<trip id="242" depart="49.6342" fromJunction="4way_57" toJunction="4way_108"/>
<trip id="243" depart="49.8393" fromJunction="4way_66" toJunction="4way_103"/>
<trip id="244" depart="50.0444" fromJunction="4way_22" toJunction="4way_136"/>
<trip id="245" depart="50.2495" fromJunction="4way_183" toJunction="4way_72"/>
<trip id="246" depart="50.4546" fromJunction="4way_136" toJunction="4way_96"/>
<trip id="247" depart="50.6597" fromJunction="4way_168" toJunction="4way_154"/>
<trip id="248" depart="50.8648" fromJunction="4way_125" toJunction="4way_46"/>
<trip id="249" depart="51.069900000000004" fromJunction="4way_78" toJunction="4way_62"/>
<trip id="250" depart="51.275" fromJunction="4way_159" toJunction="4way_200"/>
<trip id="251" depart="51.4801" fromJunction="4way_162" toJunction="4way_137"/>
<trip id="252" depart="51.6852" fromJunction="3way_11" toJunction="4way_146"/>
<trip id="253" depart="51.8903" fromJunction="4way_124" toJunction="4way_76"/>
<trip id="254" depart="52.0954" fromJunction="4way_197" toJunction="3way_179"/>
<trip id="255" depart="52.3005" fromJunction="4way_128" toJunction="4way_129"/>
<trip id="256" depart="52.5056" fromJunction="4way_39" toJunction="4way_127"/>
<trip id="257" depart="52.7107" fromJunction="4way_167" toJunction="3way_105"/>
<trip id="258" depart="52.915800000000004" fromJunction="4way_206" toJunction="4way_113"/>
<trip id="259" depart="53.1209" fromJunction="4way_166" toJunction="4way_66"/>
<trip id="260" depart="53.326" fromJunction="4way_24" toJunction="3way_7"/>
<trip id="261" depart="53.5311" fromJunction="4way_78" toJunction="3way_2"/>
<trip id="262" depart="53.736200000000004" fromJunction="4way_147" toJunction="4way_21"/>
<trip id="263" depart="53.9413" fromJunction="4way_183" toJunction="3way_119"/>
<trip id="264" depart="54.1464" fromJunction="4way_167" toJunction="3way_6"/>
<trip id="265" depart="54.3515" fromJunction="4way_151" toJunction="4way_127"/>
<trip id="266" depart="54.5566" fromJunction="3way_209" toJunction="3way_90"/>
<trip id="267" depart="54.761700000000005" fromJunction="4way_173" toJunction="4way_171"/>
<trip id="268" depart="54.9668" fromJunction="4way_43" toJunction="4way_98"/>
<trip id="269" depart="55.1719" fromJunction="4way_23" toJunction="3way_1"/>
<trip id="270" depart="55.377" fromJunction="4way_22" toJunction="4way_52"/>
<trip id="271" depart="55.582100000000004" fromJunction="3way_4" toJunction="4way_88"/>
<trip id="272" depart="55.7872" fromJunction="4way_175" toJunction="4way_173"/>
<trip id="273" depart="55.9923" fromJunction="4way_137" toJunction="4way_140"/>
<trip id="274" depart="56.1974" fromJunction="3way_149" toJunction="4way_100"/>
<trip id="275" depart="56.4025" fromJunction="4way_170" toJunction="4way_109"/>
<trip id="276" depart="56.6076" fromJunction="3way_134" toJunction="4way_173"/>
<trip id="277" depart="56.8127" fromJunction="4way_198" toJunction="3way_30"/>
<trip id="278" depart="57.0178" fromJunction="4way_42" toJunction="4way_127"/>
<trip id="279" depart="57.2229" fromJunction="3way_220" toJunction="4way_112"/>
<trip id="280" depart="57.428000000000004" fromJunction="4way_176" toJunction="4way_148"/>
<trip id="281" depart="57.6331" fromJunction="4way_147" toJunction="4way_125"/>
<trip id="282" depart="57.8382" fromJunction="4way_162" toJunction="4way_51"/>
<trip id="283" depart="58.0433" fromJunction="4way_103" toJunction="4way_41"/>
<trip id="284" depart="58.248400000000004" fromJunction="3way_8" toJunction="4way_147"/>
<trip id="285" depart="58.4535" fromJunction="4way_123" toJunction="3way_211"/>
<trip id="286" depart="58.6586" fromJunction="4way_32" toJunction="4way_58"/>
<trip id="287" depart="58.8637" fromJunction="4way_27" toJunction="3way_214"/>
<trip id="288" depart="59.0688" fromJunction="4way_102" toJunction="4way_124"/>
<trip id="289" depart="59.273900000000005" fromJunction="4way_68" toJunction="3way_214"/>
<trip id="290" depart="59.479" fromJunction="3way_74" toJunction="4way_109"/>
<trip id="291" depart="59.6841" fromJunction="4way_46" toJunction="4way_173"/>
<trip id="292" depart="59.8892" fromJunction="3way_29" toJunction="3way_9"/>
<trip id="293" depart="60.094300000000004" fromJunction="4way_102" toJunction="3way_29"/>
<trip id="294" depart="60.2994" fromJunction="4way_72" toJunction="4way_129"/>
<trip id="295" depart="60.5045" fromJunction="4way_200" toJunction="4way_98"/>
<trip id="296" depart="60.7096" fromJunction="4way_208" toJunction="4way_47"/>
<trip id="297" depart="60.9147" fromJunction="4way_20" toJunction="4way_48"/>
<trip id="298" depart="61.1198" fromJunction="4way_148" toJunction="4way_93"/>
<trip id="299" depart="61.3249" fromJunction="4way_122" toJunction="3way_211"/>
<trip id="300" depart="61.53" fromJunction="3way_29" toJunction="4way_128"/>
<trip id="301" depart="61.7351" fromJunction="4way_35" toJunction="4way_82"/>
<trip id="302" depart="61.940200000000004" fromJunction="4way_16" toJunction="4way_166"/>
<trip id="303" depart="62.1453" fromJunction="4way_63" toJunction="4way_155"/>
<trip id="304" depart="62.3504" fromJunction="4way_152" toJunction="4way_154"/>
<trip id="305" depart="62.5555" fromJunction="3way_220" toJunction="4way_118"/>
<trip id="306" depart="62.760600000000004" fromJunction="4way_167" toJunction="3way_149"/>
<trip id="307" depart="62.9657" fromJunction="4way_53" toJunction="4way_22"/>
<trip id="308" depart="63.1708" fromJunction="4way_208" toJunction="4way_153"/>
<trip id="309" depart="63.3759" fromJunction="4way_69" toJunction="4way_197"/>
<trip id="310" depart="63.581" fromJunction="4way_175" toJunction="4way_172"/>
<trip id="311" depart="63.786100000000005" fromJunction="4way_42" toJunction="4way_133"/>
<trip id="312" depart="63.9912" fromJunction="4way_188" toJunction="4way_204"/>
<trip id="313" depart="64.19630000000001" fromJunction="3way_217" toJunction="4way_152"/>
<trip id="314" depart="64.4014" fromJunction="4way_31" toJunction="3way_29"/>
<trip id="315" depart="64.6065" fromJunction="4way_185" toJunction="4way_79"/>
<trip id="316" depart="64.8116" fromJunction="4way_73" toJunction="4way_40"/>
<trip id="317" depart="65.0167" fromJunction="3way_179" toJunction="3way_209"/>
<trip id="318" depart="65.2218" fromJunction="4way_144" toJunction="4way_22"/>
<trip id="319" depart="65.4269" fromJunction="4way_192" toJunction="4way_101"/>
<trip id="320" depart="65.632" fromJunction="4way_168" toJunction="4way_163"/>
<trip id="321" depart="65.8371" fromJunction="3way_217" toJunction="4way_108"/>
<trip id="322" depart="66.04220000000001" fromJunction="4way_53" toJunction="4way_143"/>
<trip id="323" depart="66.2473" fromJunction="3way_149" toJunction="4way_146"/>
<trip id="324" depart="66.4524" fromJunction="4way_186" toJunction="4way_110"/>
<trip id="325" depart="66.6575" fromJunction="3way_212" toJunction="4way_31"/>
<trip id="326" depart="66.8626" fromJunction="3way_13" toJunction="4way_131"/>
<trip id="327" depart="67.0677" fromJunction="3way_209" toJunction="4way_20"/>
<trip id="328" depart="67.2728" fromJunction="4way_148" toJunction="4way_169"/>
<trip id="329" depart="67.4779" fromJunction="4way_131" toJunction="4way_49"/>
<trip id="330" depart="67.683" fromJunction="4way_121" toJunction="3way_209"/>
<trip id="331" depart="67.88810000000001" fromJunction="4way_168" toJunction="4way_183"/>
<trip id="332" depart="68.0932" fromJunction="4way_182" toJunction="4way_98"/>
<trip id="333" depart="68.2983" fromJunction="4way_187" toJunction="4way_39"/>
<trip id="334" depart="68.5034" fromJunction="4way_79" toJunction="4way_168"/>
<trip id="335" depart="68.7085" fromJunction="3way_59" toJunction="4way_97"/>
<trip id="336" depart="68.9136" fromJunction="4way_38" toJunction="4way_205"/>
<trip id="337" depart="69.1187" fromJunction="4way_36" toJunction="4way_84"/>
<trip id="338" depart="69.3238" fromJunction="4way_183" toJunction="3way_194"/>
<trip id="339" depart="69.52890000000001" fromJunction="4way_92" toJunction="4way_183"/>
<trip id="340" depart="69.734" fromJunction="4way_114" toJunction="3way_7"/>
<trip id="341" depart="69.9391" fromJunction="4way_67" toJunction="3way_194"/>
<trip id="342" depart="70.1442" fromJunction="4way_172" toJunction="4way_203"/>
<trip id="343" depart="70.3493" fromJunction="3way_164" toJunction="4way_73"/>
<trip id="344" depart="70.5544" fromJunction="3way_7" toJunction="4way_161"/>
<trip id="345" depart="70.7595" fromJunction="4way_183" toJunction="4way_36"/>
<trip id="346" depart="70.9646" fromJunction="4way_48" toJunction="4way_185"/>
<trip id="347" depart="71.1697" fromJunction="3way_5" toJunction="3way_150"/>
<trip id="348" depart="71.37480000000001" fromJunction="4way_86" toJunction="4way_170"/>
<trip id="349" depart="71.5799" fromJunction="3way_45" toJunction="4way_78"/>
<trip id="350" depart="71.785" fromJunction="3way_104" toJunction="3way_89"/>
<trip id="351" depart="71.9901" fromJunction="3way_164" toJunction="3way_60"/>
<trip id="352" depart="72.1952" fromJunction="3way_44" toJunction="4way_106"/>
<trip id="353" depart="72.4003" fromJunction="4way_131" toJunction="3way_44"/>
<trip id="354" depart="72.6054" fromJunction="4way_111" toJunction="3way_214"/>
<trip id="355" depart="72.8105" fromJunction="4way_154" toJunction="4way_40"/>
<trip id="356" depart="73.0156" fromJunction="3way_120" toJunction="3way_216"/>
<trip id="357" depart="73.22070000000001" fromJunction="4way_200" toJunction="4way_79"/>
<trip id="358" depart="73.4258" fromJunction="4way_70" toJunction="4way_197"/>
<trip id="359" depart="73.6309" fromJunction="4way_162" toJunction="4way_159"/>
<trip id="360" depart="73.836" fromJunction="4way_57" toJunction="3way_7"/>
<trip id="361" depart="74.0411" fromJunction="4way_206" toJunction="4way_138"/>
<trip id="362" depart="74.2462" fromJunction="4way_178" toJunction="4way_158"/>
<trip id="363" depart="74.4513" fromJunction="4way_48" toJunction="4way_189"/>
<trip id="364" depart="74.6564" fromJunction="4way_93" toJunction="4way_110"/>
<trip id="365" depart="74.8615" fromJunction="4way_91" toJunction="4way_48"/>
<trip id="366" depart="75.06660000000001" fromJunction="4way_128" toJunction="4way_95"/>
<trip id="367" depart="75.2717" fromJunction="4way_185" toJunction="4way_151"/>
<trip id="368" depart="75.4768" fromJunction="3way_214" toJunction="3way_209"/>
<trip id="369" depart="75.6819" fromJunction="4way_118" toJunction="3way_11"/>
<trip id="370" depart="75.887" fromJunction="3way_195" toJunction="3way_1"/>
<trip id="371" depart="76.0921" fromJunction="3way_89" toJunction="4way_97"/>
<trip id="372" depart="76.2972" fromJunction="4way_69" toJunction="4way_206"/>