<routes xmlns:xsi="http://www.w3.org/2001/XMLSchema-instance" xsi:noNamespaceSchemaLocation="http://sumo.dlr.de/xsd/routes_file.xsd">
<trip id="0" depart="0.0" fromJunction="4way_292" toJunction="4way_49"/>
<trip id="1" depart="1.0" fromJunction="4way_368" toJunction="4way_110"/>
<trip id="2" depart="2.0" fromJunction="4way_91" toJunction="4way_126"/>
<trip id="3" depart="3.0" fromJunction="4way_256" toJunction="4way_246"/>
<trip id="4" depart="4.0" fromJunction="4way_165" toJunction="4way_98"/>
<trip id="5" depart="5.0" fromJunction="4way_248" toJunction="4way_174"/>
<trip id="6" depart="6.0" fromJunction="4way_157" toJunction="4way_189"/>
<trip id="7" depart="7.0" fromJunction="3way_359" toJunction="3way_239"/>
<trip id="8" depart="8.0" fromJunction="4way_135" toJunction="3way_9"/>
<trip id="9" depart="9.0" fromJunction="4way_76" toJunction="4way_74"/>
<trip id="10" depart="10.0" fromJunction="4way_234" toJunction="4way_218"/>
<trip id="11" depart="11.0" fromJunction="4way_94" toJunction="4way_67"/>
<trip id="12" depart="12.0" fromJunction="4way_51" toJunction="3way_388"/>
<trip id="13" depart="13.0" fromJunction="4way_317" toJunction="3way_320"/>
<trip id="14" depart="14.0" fromJunction="4way_66" toJunction="4way_188"/>
<trip id="15" depart="15.0" fromJunction="4way_34" toJunction="4way_302"/>
<trip id="16" depart="16.0" fromJunction="4way_209" toJunction="4way_27"/>
<trip id="17" depart="17.0" fromJunction="4way_230" toJunction="3way_8"/>
<trip id="18" depart="18.0" fromJunction="4way_230" toJunction="4way_190"/>
<trip id="19" depart="19.0" fromJunction="4way_32" toJunction="4way_297"/>
<trip id="20" depart="20.0" fromJunction="4way_246" toJunction="4way_344"/>
<trip id="21" depart="21.0" fromJunction="3way_139" toJunction="4way_152"/>
<trip id="22" depart="22.0" fromJunction="4way_291" toJunction="4way_271"/>
<trip id="23" depart="23.0" fromJunction="3way_383" toJunction="4way_241"/>
<trip id="24" depart="24.0" fromJunction="4way_25" toJunction="4way_343"/>
<trip id="25" depart="25.0" fromJunction="4way_246" toJunction="4way_209"/>
<trip id="26" depart="26.0" fromJunction="3way_394" toJunction="4way_298"/>
<trip id="27" depart="27.0" fromJunction="3way_180" toJunction="4way_221"/>
<trip id="28" depart="28.0" fromJunction="4way_222" toJunction="4way_151"/>
<trip id="29" depart="29.0" fromJunction="4way_142" toJunction="4way_107"/>
<trip id="30" depart="30.0" fromJunction="3way_391" toJunction="3way_200"/>
<trip id="31" depart="31.0" fromJunction="3way_360" toJunction="4way_171"/>
<trip id="32" depart="32.0" fromJunction="4way_65" toJunction="4way_121"/>
<trip id="33" depart="33.0" fromJunction="3way_396" toJunction="4way_55"/>
<trip id="34" depart="34.0" fromJunction="3way_396" toJunction="4way_175"/>
<trip id="35" depart="35.0" fromJunction="4way_127" toJunction="4way_198"/>
<trip id="36" depart="36.0" fromJunction="4way_130" toJunction="4way_198"/>
<trip id="37" depart="37.0" fromJunction="3way_16" toJunction="4way_113"/>
<trip id="38" depart="38.0" fromJunction="3way_387" toJunction="4way_83"/>
<trip id="39" depart="39.0" fromJunction="3way_387" toJunction="4way_203"/>
<trip id="40" depart="40.0" fromJunction="4way_66" toJunction="4way_363"/>
<trip id="41" depart="41.0" fromJunction="4way_112" toJunction="3way_179"/>
<trip id="42" depart="42.0" fromJunction="4way_322" toJunction="4way_189"/>
<trip id="43" depart="43.0" fromJunction="3way_397" toJunction="4way_208"/>
<trip id="44" depart="44.0" fromJunction="4way_197" toJunction="4way_269"/>
<trip id="45" depart="45.0" fromJunction="4way_271" toJunction="4way_24"/>
<trip id="46" depart="46.0" fromJunction="4way_292" toJunction="3way_382"/>
<trip id="47" depart="47.0" fromJunction="4way_21" toJunction="4way_143"/>
<trip id="48" depart="48.0" fromJunction="3way_8" toJunction="4way_349"/>
<trip id="49" depart="49.0" fromJunction="3way_2" toJunction="4way_115"/>
<trip id="50" depart="50.0" fromJunction="4way_342" toJunction="4way_351"/>
<trip id="51" depart="51.0" fromJunction="4way_98" toJunction="4way_93"/>
<trip id="52" depart="52.0" fromJunction="4way_269" toJunction="4way_182"/>
<trip id="53" depart="53.0" fromJunction="4way_229" toJunction="4way_30"/>
<trip id="54" depart="54.0" fromJunction="4way_377" toJunction="4way_341"/>
<trip id="55" depart="55.0" fromJunction="4way_255" toJunction="4way_326"/>
<trip id="56" depart="56.0" fromJunction="4way_203" toJunction="4way_152"/>
<trip id="57" depart="57.0" fromJunction="4way_285" toJunction="4way_354"/>
<trip id="58" depart="58.0" fromJunction="4way_309" toJunction="4way_156"/>
<trip id="59" depart="59.0" fromJunction="4way_112" toJunction="4way_176"/>
<trip id="60" depart="60.0" fromJunction="4way_28" toJunction="4way_372"/>
<trip id="61" depart="61.0" fromJunction="4way_91" toJunction="4way_38"/>
<trip id="62" depart="62.0" fromJunction="4way_150" toJunction="4way_126"/>
<trip id="63" depart="63.0" fromJunction="4way_243" toJunction="3way_8"/>
<trip id="64" depart="64.0" fromJunction="4way_143" toJunction="4way_211"/>
<trip id="65" depart="65.0" fromJunction="4way_166" toJunction="4way_230"/>
<trip id="66" depart="66.0" fromJunction="4way_223" toJunction="3way_381"/>
<trip id="67" depart="67.0" fromJunction="4way_369" toJunction="4way_209"/>
<trip id="68" depart="68.0" fromJunction="4way_151" toJunction="4way_249"/>
<trip id="69" depart="69.0" fromJunction="4way_186" toJunction="4way_151"/>
<trip id="70" depart="70.0" fromJunction="4way_45" toJunction="4way_296"/>
<trip id="71" depart="71.0" fromJunction="4way_256" toJunction="4way_226"/>
<trip id="72" depart="72.0" fromJunction="4way_192" toJunction="4way_294"/>
<trip id="73" depart="73.0" fromJunction="4way_117" toJunction="3way_395"/>
<trip id="74" depart="74.0" fromJunction="4way_378" toJunction="4way_272"/>
<trip id="75" depart="75.0" fromJunction="4way_56" toJunction="3way_260"/>
<trip id="76" depart="76.0" fromJunction="4way_210" toJunction="3way_160"/>
<trip id="77" depart="77.0" fromJunction="4way_255" toJunction="3way_385"/>
<trip id="78" depart="78.0" fromJunction="4way_209" toJunction="4way_294"/>
<trip id="79" depart="79.0" fromJunction="3way_219" toJunction="4way_365"/>
<trip id="80" depart="80.0" fromJunction="4way_366" toJunction="4way_152"/>
<trip id="81" depart="81.0" fromJunction="4way_56" toJunction="4way_332"/>
<trip id="82" depart="82.0" fromJunction="4way_315" toJunction="4way_198"/>
<trip id="83" depart="83.0" fromJunction="4way_344" toJunction="3way_5"/>
<trip id="84" depart="84.0" fromJunction="3way_100" toJunction="4way_53"/>
<trip id="85" depart="85.0" fromJunction="3way_99" toJunction="4way_188"/>
<trip id="86" depart="86.0" fromJunction="3way_8" toJunction="4way_161"/>
<trip id="87" depart="87.0" fromJunction="4way_341" toJunction="4way_194"/>
<trip id="88" depart="88.0" fromJunction="4way_177" toJunction="4way_224"/>
<trip id="89" depart="89.0" fromJunction="3way_13" toJunction="4way_192"/>
<trip id="90" depart="90.0" fromJunction="4way_270" toJunction="3way_140"/>
<trip id="91" depart="91.0" fromJunction="4way_102" toJunction="4way_269"/>
<trip id="92" depart="92.0" fromJunction="4way_210" toJunction="4way_217"/>
<trip id="93" depart="93.0" fromJunction="4way_369" toJunction="4way_308"/>
<trip id="94" depart="94.0" fromJunction="4way_323" toJunction="4way_53"/>
<trip id="95" depart="95.0" fromJunction="4way_241" toJunction="4way_285"/>
<trip id="96" depart="96.0" fromJunction="4way_297" toJunction="4way_41"/>
<trip id="97" depart="97.0" fromJunction="4way_307" toJunction="4way_113"/>
<trip id="98" depart="98.0" fromJunction="4way_222" toJunction="4way_22"/>
<trip id="99" depart="99.0" fromJunction="4way_226" toJunction="3way_119"/>
<trip id="100" depart="100.0" fromJunction="4way_132" toJunction="4way_323"/>
<trip id="101" depart="101.0" fromJunction="3way_20" toJunction="4way_125"/>
<trip id="102" depart="102.0" fromJunction="3way_199" toJunction="3way_10"/>
<trip id="103" depart="103.0" fromJunction="4way_366" toJunction="4way_371"/>
<trip id="104" depart="104.0" fromJunction="4way_296" toJunction="4way_308"/>
<trip id="105" depart="105.0" fromJunction="4way_281" toJunction="4way_318"/>
<trip id="106" depart="106.0" fromJunction="4way_302" toJunction="4way_231"/>
<trip id="107" depart="107.0" fromJunction="4way_273" toJunction="3way_9"/>
<trip id="108" depart="108.0" fromJunction="4way_165" toJunction="4way_24"/>
<trip id="109" depart="109.0" fromJunction="4way_135" toJunction="4way_349"/>
<trip id="110" depart="110.0" fromJunction="4way_96" toJunction="4way_330"/>
<trip id="111" depart="111.0" fromJunction="4way_234" toJunction="4way_23"/>
<trip id="112" depart="112.0" fromJunction="4way_377" toJunction="4way_41"/>
<trip id="113" depart="113.0" fromJunction="4way_281" toJunction="4way_72"/>
<trip id="114" depart="114.0" fromJunction="4way_53" toJunction="4way_337"/>
<trip id="115" depart="115.0" fromJunction="4way_261" toJunction="4way_222"/>
<trip id="116" depart="116.0" fromJunction="3way_11" toJunction="4way_168"/>
<trip id="117" depart="117.0" fromJunction="4way_146" toJunction="4way_221"/>
<trip id="118" depart="118.0" fromJunction="4way_87" toJunction="4way_105"/>
<trip id="119" depart="119.0" fromJunction="4way_349" toJunction="4way_43"/>
<trip id="120" depart="120.0" fromJunction="3way_388" toJunction="4way_36"/>
<trip id="121" depart="121.0" fromJunction="3way_382" toJunction="4way_148"/>
<trip id="122" depart="122.0" fromJunction="4way_265" toJunction="4way_292"/>
<trip id="123" depart="123.0" fromJunction="4way_21" toJunction="4way_169"/>
<trip id="124" depart="124.0" fromJunction="4way_287" toJunction="3way_300"/>
<trip id="125" depart="125.0" fromJunction="4way_277" toJunction="4way_304"/>
<trip id="126" depart="126.0" fromJunction="4way_193" toJunction="4way_333"/>
<trip id="127" depart="127.0" fromJunction="3way_339" toJunction="4way_336"/>
<trip id="128" depart="128.0" fromJunction="4way_329" toJunction="4way_69"/>
<trip id="129" depart="129.0" fromJunction="4way_163" toJunction="4way_78"/>
<trip id="130" depart="130.0" fromJunction="3way_395" toJunction="4way_122"/>
<trip id="131" depart="131.0" fromJunction="4way_197" toJunction="3way_7"/>
<trip id="132" depart="132.0" fromJunction="4way_114" toJunction="4way_291"/>
<trip id="133" depart="133.0" fromJunction="4way_349" toJunction="4way_83"/>
<trip id="134" depart="134.0" fromJunction="4way_267" toJunction="3way_179"/>
<trip id="135" depart="135.0" fromJunction="4way_136" toJunction="4way_218"/>
<trip id="136" depart="136.0" fromJunction="4way_78" toJunction="4way_164"/>
<trip id="137" depart="137.0" fromJunction="4way_337" toJunction="4way_42"/>
<trip id="138" depart="138.0" fromJunction="4way_234" toJunction="4way_277"/>
<trip id="139" depart="139.0" fromJunction="4way_116" toJunction="4way_330"/>
<trip id="140" depart="140.0" fromJunction="4way_275" toJunction="4way_183"/>
<trip id="141" depart="141.0" fromJunction="3way_6" toJunction="4way_230"/>
<trip id="142" depart="142.0" fromJunction="3way_280" toJunction="4way_244"/>
<trip id="143" depart="143.0" fromJunction="4way_207" toJunction="4way_238"/>
<trip id="144" depart="144.0" fromJunction="4way_51" toJunction="4way_347"/>
<trip id="145" depart="145.0" fromJunction="3way_360" toJunction="4way_45"/>
<trip id="146" depart="146.0" fromJunction="4way_81" toJunction="4way_55"/>
<trip id="147" depart="147.0" fromJunction="4way_341" toJunction="4way_108"/>
<trip id="148" depart="148.0" fromJunction="4way_375" toJunction="3way_396"/>
<trip id="149" depart="149.0" fromJunction="4way_78" toJunction="4way_178"/>
<trip id="150" depart="150.0" fromJunction="4way_34" toJunction="4way_356"/>
<trip id="151" depart="151.0" fromJunction="3way_319" toJunction="4way_124"/>
<trip id="152" depart="152.0" fromJunction="4way_42" toJunction="4way_365"/>
<trip id="153" depart="153.0" fromJunction="3way_99" toJunction="3way_382"/>
<trip id="154" depart="154.0" fromJunction="3way_5" toJunction="4way_372"/>
<trip id="155" depart="155.0" fromJunction="3way_280" toJunction="4way_373"/>
<trip id="156" depart="156.0" fromJunction="3way_379" toJunction="3way_299"/>
<trip id="157" depart="157.0" fromJunction="4way_162" toJunction="4way_311"/>
<trip id="158" depart="158.0" fromJunction="4way_109" toJunction="4way_106"/>
<trip id="159" depart="159.0" fromJunction="4way_372" toJunction="4way_355"/>
<trip id="160" depart="160.0" fromJunction="3way_382" toJunction="4way_362"/>
<trip id="161" depart="161.0" fromJunction="4way_243" toJunction="3way_99"/>
<trip id="162" depart="162.0" fromJunction="4way_27" toJunction="4way_282"/>
<trip id="163" depart="163.0" fromJunction="4way_132" toJunction="4way_32"/>
<trip id="164" depart="164.0" fromJunction="4way_145" toJunction="4way_103"/>
<trip id="165" depart="165.0" fromJunction="4way_154" toJunction="3way_20"/>
<trip id="166" depart="166.0" fromJunction="4way_152" toJunction="3way_119"/>
<trip id="167" depart="167.0" fromJunction="4way_54" toJunction="4way_74"/>
<trip id="168" depart="168.0" fromJunction="4way_105" toJunction="4way_262"/>
<trip id="169" depart="169.0" fromJunction="4way_23" toJunction="4way_349"/>
<trip id="170" depart="170.0" fromJunction="4way_141" toJunction="4way_65"/>
<trip id="171" depart="171.0" fromJunction="3way_18" toJunction="4way_67"/>
<trip id="172" depart="172.0" fromJunction="3way_279" toJunction="4way_234"/>
<trip id="173" depart="173.0" fromJunction="4way_283" toJunction="4way_168"/>
<trip id="174" depart="174.0" fromJunction="4way_58" toJunction="4way_269"/>
<trip id="175" depart="175.0" fromJunction="3way_15" toJunction="4way_91"/>
<trip id="176" depart="176.0" fromJunction="4way_88" toJunction="4way_186"/>
<trip id="177" depart="177.0" fromJunction="4way_371" toJunction="4way_308"/>
<trip id="178" depart="178.0" fromJunction="3way_383" toJunction="4way_43"/>
<trip id="179" depart="179.0" fromJunction="4way_38" toJunction="4way_245"/>
<trip id="180" depart="180.0" fromJunction="4way_336" toJunction="4way_61"/>
<trip id="181" depart="181.0" fromJunction="4way_27" toJunction="4way_368"/>
<trip id="182" depart="182.0" fromJunction="4way_47" toJunction="4way_176"/>
<trip id="183" depart="183.0" fromJunction="4way_305" toJunction="4way_352"/>
<trip id="184" depart="184.0" fromJunction="4way_92" toJunction="4way_356"/>
<trip id="185" depart="185.0" fromJunction="4way_84" toJunction="4way_172"/>
<trip id="186" depart="186.0" fromJunction="4way_370" toJunction="4way_253"/>
<trip id="187" depart="187.0" fromJunction="3way_180" toJunction="4way_122"/>
<trip id="188" depart="188.0" fromJunction="4way_58" toJunction="4way_214"/>
<trip id="189" depart="189.0" fromJunction="4way_30" toJunction="4way_47"/>
<trip id="190" depart="190.0" fromJunction="4way_47" toJunction="4way_335"/>
<trip id="191" depart="191.0" fromJunction="4way_249" toJunction="4way_357"/>
<trip id="192" depart="192.0" fromJunction="4way_376" toJunction="4way_55"/>
<trip id="193" depart="193.0" fromJunction="3way_180" toJunction="4way_354"/>
<trip id="194" depart="194.0" fromJunction="4way_285" toJunction="4way_330"/>
<trip id="195" depart="195.0" fromJunction="4way_126" toJunction="3way_159"/>
<trip id="196" depart="196.0" fromJunction="4way_275" toJunction="4way_262"/>
<trip id="197" depart="197.0" fromJunction="4way_58" toJunction="3way_14"/>
<trip id="198" depart="198.0" fromJunction="4way_324" toJunction="4way_304"/>
<trip id="199" depart="199.0" fromJunction="4way_41" toJunction="3way_7"/>
<trip id="200" depart="200.0" fromJunction="4way_177" toJunction="4way_305"/>
<trip id="201" depart="201.0" fromJunction="4way_317" toJunction="3way_395"/>
<trip id="202" depart="202.0" fromJunction="4way_366" toJunction="4way_76"/>
<trip id="203" depart="203.0" fromJunction="4way_62" toJunction="4way_84"/>
<trip id="204" depart="204.0" fromJunction="3way_14" toJunction="4way_210"/>
<trip id="205" depart="205.0" fromJunction="4way_166" toJunction="3way_7"/>
<trip id="206" depart="206.0" fromJunction="4way_202" toJunction="3way_199"/>
<trip id="207" depart="207.0" fromJunction="4way_222" toJunction="4way_321"/>
<trip id="208" depart="208.0" fromJunction="3way_5" toJunction="3way_383"/>
<trip id="209" depart="209.0" fromJunction="4way_230" toJunction="3way_389"/>
<trip id="210" depart="210.0" fromJunction="4way_318" toJunction="4way_178"/>
<trip id="211" depart="211.0" fromJunction="3way_160" toJunction="4way_365"/>
<trip id="212" depart="212.0" fromJunction="4way_307" toJunction="4way_31"/>
<trip id="213" depart="213.0" fromJunction="3way_179" toJunction="4way_298"/>
<trip id="214" depart="214.0" fromJunction="4way_143" toJunction="4way_114"/>
<trip id="215" depart="215.0" fromJunction="4way_231" toJunction="4way_122"/>
<trip id="216" depart="216.0" fromJunction="4way_251" toJunction="4way_162"/>
<trip id="217" depart="217.0" fromJunction="4way_126" toJunction="4way_148"/>
<trip id="218" depart="218.0" fromJunction="4way_123" toJunction="4way_89"/>
<trip id="219" depart="219.0" fromJunction="4way_66" toJunction="4way_212"/>
<trip id="220" depart="220.0" fromJunction="4way_115" toJunction="4way_344"/>
<trip id="221" depart="221.0" fromJunction="3way_39" toJunction="4way_157"/>
<trip id="222" depart="222.0" fromJunction="4way_264" toJunction="4way_62"/>
<trip id="223" depart="223.0" fromJunction="4way_278" toJunction="4way_354"/>
<trip id="224" depart="224.0" fromJunction="4way_356" toJunction="4way_138"/>
<trip id="225" depart="225.0" fromJunction="4way_318" toJunction="4way_203"/>
<trip id="226" depart="226.0" fromJunction="3way_393" toJunction="4way_182"/>
<trip id="227" depart="227.0" fromJunction="4way_62" toJunction="4way_357"/>
<trip id="228" depart="228.0" fromJunction="3way_139" toJunction="4way_92"/>
<trip id="229" depart="229.0" fromJunction="4way_176" toJunction="4way_53"/>
<trip id="230" depart="230.0" fromJunction="4way_145" toJunction="4way_362"/>
<trip id="231" depart="231.0" fromJunction="4way_193" toJunction="4way_105"/>
<trip id="232" depart="232.0" fromJunction="3way_80" toJunction="4way_102"/>
<trip id="233" depart="233.0" fromJunction="4way_263" toJunction="4way_326"/>
<trip id="234" depart="234.0" fromJunction="4way_102" toJunction="4way_195"/>
<trip id="235" depart="235.0" fromJunction="4way_297" toJunction="4way_28"/>
<trip id="236" depart="236.0" fromJunction="4way_56" toJunction="4way_370"/>
<trip id="237" depart="237.0" fromJunction="4way_213" toJunction="4way_277"/>
<trip id="238" depart="238.0" fromJunction="4way_138" toJunction="4way_172"/>
<trip id="239" depart="239.0" fromJunction="4way_346" toJunction="4way_338"/>
<trip id="240" depart="240.0" fromJunction="4way_163" toJunction="3way_239"/>
<trip id="241" depart="241.0" fromJunction="4way_86" toJunction="3way_240"/>
<trip id="242" depart="242.0" fromJunction="4way_130" toJunction="3way_383"/>
<trip id="243" depart="243.0" fromJunction="4way_276" toJunction="4way_165"/>
<trip id="244" depart="244.0" fromJunction="4way_29" toJunction="4way_138"/>
<trip id="245" depart="245.0" fromJunction="4way_30" toJunction="4way_23"/>
<trip id="246" depart="246.0" fromJunction="4way_365" toJunction="4way_296"/>
<trip id="247" depart="247.0" fromJunction="4way_362" toJunction="4way_69"/>
<trip id="248" depart="248.0" fromJunction="4way_325" toJunction="4way_27"/>
<trip id="249" depart="249.0" fromJunction="4way_68" toJunction="4way_182"/>
<trip id="250" depart="250.0" fromJunction="4way_85" toJunction="4way_303"/>
<trip id="251" depart="251.0" fromJunction="4way_213" toJunction="4way_208"/>
<trip id="252" depart="252.0" fromJunction="4way_137" toJunction="4way_144"/>
<trip id="253" depart="253.0" fromJunction="3way_59" toJunction="4way_375"/>
<trip id="254" depart="254.0" fromJunction="4way_306" toJunction="4way_222"/>
<trip id="255" depart="255.0" fromJunction="4way_244" toJunction="3way_393"/>
<trip id="256" depart="256.0" fromJunction="4way_371" toJunction="4way_133"/>
<trip id="257" depart="257.0" fromJunction="4way_252" toJunction="4way_270"/>
<trip id="258" depart="258.0" fromJunction="4way_204" toJunction="4way_201"/>
<trip id="259" depart="259.0" fromJunction="4way_156" toJunction="4way_331"/>
<trip id="260" depart="260.0" fromJunction="4way_83" toJunction="4way_368"/>
<trip id="261" depart="261.0" fromJunction="4way_252" toJunction="3way_12"/>
<trip id="262" depart="262.0" fromJunction="4way_85" toJunction="3way_4"/>
<trip id="263" depart="263.0" fromJunction="4way_137" toJunction="4way_268"/>
<trip id="264" depart="264.0" fromJunction="4way_345" toJunction="3way_379"/>
<trip id="265" depart="265.0" fromJunction="4way_204" toJunction="3way_10"/>
<trip id="266" depart="266.0" fromJunction="4way_63" toJunction="4way_270"/>
<trip id="267" depart="267.0" fromJunction="3way_389" toJunction="4way_241"/>
<trip id="268" depart="268.0" fromJunction="4way_132" toJunction="4way_269"/>
<trip id="269" depart="269.0" fromJunction="4way_337" toJunction="4way_311"/>
<trip id="270" depart="270.0" fromJunction="4way_111" toJunction="3way_2"/>
<trip id="271" depart="271.0" fromJunction="4way_369" toJunction="4way_90"/>
<trip id="272" depart="272.0" fromJunction="3way_7" toJunction="4way_98"/>
<trip id="273" depart="273.0" fromJunction="4way_354" toJunction="4way_132"/>
<trip id="274" depart="274.0" fromJunction="4way_144" toJunction="4way_88"/>
<trip id="275" depart="275.0" fromJunction="3way_396" toJunction="4way_174"/>
<trip id="276" depart="276.0" fromJunction="4way_168" toJunction="4way_286"/>
<trip id="277" depart="277.0" fromJunction="3way_379" toJunction="4way_112"/>
<trip id="278" depart="278.0" fromJunction="4way_26" toJunction="4way_22"/>
<trip id="279" depart="279.0" fromJunction="4way_216" toJunction="4way_270"/>
<trip id="280" depart="280.0" fromJunction="3way_382" toJunction="4way_250"/>
<trip id="281" depart="281.0" fromJunction="4way_96" toJunction="4way_238"/>
<trip id="282" depart="282.0" fromJunction="4way_137" toJunction="4way_48"/>
<trip id="283" depart="283.0" fromJunction="4way_137" toJunction="4way_348"/>
<trip id="284" depart="284.0" fromJunction="4way_138" toJunction="4way_115"/>
<trip id="285" depart="285.0" fromJunction="3way_15" toJunction="4way_117"/>
<trip id="286" depart="286.0" fromJunction="4way_225" toJunction="3way_60"/>
<trip id="287" depart="287.0" fromJunction="4way_223" toJunction="4way_377"/>
<trip id="288" depart="288.0" fromJunction="4way_196" toJunction="3way_180"/>
<trip id="289" depart="289.0" fromJunction="4way_376" toJunction="4way_306"/>
<trip id="290" depart="290.0" fromJunction="4way_211" toJunction="3way_180"/>
<trip id="291" depart="291.0" fromJunction="3way_279" toJunction="4way_266"/>
<trip id="292" depart="292.0" fromJunction="4way_162" toJunction="4way_132"/>
<trip id="293" depart="293.0" fromJunction="3way_139" toJunction="3way_16"/>
<trip id="294" depart="294.0" fromJunction="4way_376" toJunction="3way_159"/>
<trip id="295" depart="295.0" fromJunction="4way_296" toJunction="4way_113"/>
<trip id="296" depart="296.0" fromJunction="4way_248" toJunction="4way_311"/>
<trip id="297" depart="297.0" fromJunction="4way_378" toJunction="4way_263"/>
<trip id="298" depart="298.0" fromJunction="4way_147" toJunction="4way_364"/>
<trip id="299" depart="299.0" fromJunction="4way_218" toJunction="4way_125"/>
<trip id="300" depart="300.0" fromJunction="4way_84" toJunction="3way_60"/>
<trip id="301" depart="301.0" fromJunction="3way_179" toJunction="4way_371"/>
<trip id="302" depart="302.0" fromJunction="4way_207" toJunction="4way_150"/>
<trip id="303" depart="303.0" fromJunction="4way_102" toJunction="4way_103"/>
<trip id="304" depart="304.0" fromJunction="4way_45" toJunction="4way_128"/>
<trip id="305" depart="305.0" fromJunction="4way_164" toJunction="4way_27"/>
<trip id="306" depart="306.0" fromJunction="3way_382" toJunction="4way_158"/>
<trip id="307" depart="307.0" fromJunction="4way_204" toJunction="3way_396"/>
<trip id="308" depart="308.0" fromJunction="4way_211" toJunction="4way_30"/>
<trip id="309" depart="309.0" fromJunction="4way_378" toJunction="4way_285"/>
<trip id="310" depart="310.0" fromJunction="4way_332" toJunction="4way_284"/>
<trip id="311" depart="311.0" fromJunction="4way_334" toJunction="4way_31"/>
<trip id="312" depart="312.0" fromJunction="4way_236" toJunction="4way_198"/>
<trip id="313" depart="313.0" fromJunction="4way_152" toJunction="4way_313"/>
<trip id="314" depart="314.0" fromJunction="3way_280" toJunction="4way_144"/>
<trip id="315" depart="315.0" fromJunction="4way_122" toJunction="3way_159"/>
<trip id="316" depart="316.0" fromJunction="4way_188" toJunction="4way_206"/>
<trip id="317" depart="317.0" fromJunction="4way_58" toJunction="4way_34"/>
<trip id="318" depart="318.0" fromJunction="3way_392" toJunction="3way_388"/>
<trip id="319" depart="319.0" fromJunction="4way_173" toJunction="4way_369"/>
<trip id="320" depart="320.0" fromJunction="4way_237" toJunction="4way_255"/>
<trip id="321" depart="321.0" fromJunction="4way_305" toJunction="4way_258"/>
<trip id="322" depart="322.0" fromJunction="3way_280" toJunction="4way_145"/>
<trip id="323" depart="323.0" fromJunction="4way_191" toJunction="4way_52"/>
<trip id="324" depart="324.0" fromJunction="3way_396" toJunction="4way_375"/>
<trip id="325" depart="325.0" fromJunction="4way_309" toJunction="4way_367"/>
<trip id="326" depart="326.0" fromJunction="3way_120" toJunction="4way_122"/>
<trip id="327" depart="327.0" fromJunction="3way_139" toJunction="4way_355"/>
<trip id="328" depart="328.0" fromJunction="3way_389" toJunction="4way_147"/>
<trip id="329" depart="329.0" fromJunction="4way_238" toJunction="4way_27"/>
<trip id="330" depart="330.0" fromJunction="4way_335" toJunction="4way_126"/>
<trip id="331" depart="331.0" fromJunction="4way_362" toJunction="3way_388"/>
<trip id="332" depart="332.0" fromJunction="4way_305" toJunction="4way_325"/>
<trip id="333" depart="333.0" fromJunction="4way_224" toJunction="4way_291"/>
<trip id="334" depart="334.0" fromJunction="4way_51" toJunction="4way_272"/>
<trip id="335" depart="335.0" fromJunction="4way_186" toJunction="4way_305"/>
<trip id="336" depart="336.0" fromJunction="3way_219" toJunction="4way_210"/>
<trip id="337" depart="337.0" fromJunction="4way_151" toJunction="4way_55"/>
<trip id="338" depart="338.0" fromJunction="4way_308" toJunction="4way_372"/>
<trip id="339" depart="339.0" fromJunction="4way_345" toJunction="3way_391"/>
<trip id="340" depart="340.0" fromJunction="4way_44" toJunction="4way_345"/>
<trip id="341" depart="341.0" fromJunction="4way_93" toJunction="3way_12"/>
<trip id="342" depart="342.0" fromJunction="4way_150" toJunction="3way_391"/>
<trip id="343" depart="343.0" fromJunction="4way_370" toJunction="4way_192"/>
<trip id="344" depart="344.0" fromJunction="3way_394" toJunction="4way_58"/>
<trip id="345" depart="345.0" fromJunction="3way_12" toJunction="4way_56"/>
<trip id="346" depart="346.0" fromJunction="4way_345" toJunction="4way_288"/>
<trip id="347" depart="347.0" fromJunction="4way_25" toJunction="4way_208"/>
<trip id="348" depart="348.0" fromJunction="3way_8" toJunction="4way_81"/>
<trip id="349" depart="349.0" fromJunction="4way_215" toJunction="4way_168"/>
<trip id="350" depart="350.0" fromJunction="4way_341" toJunction="4way_85"/>
<trip id="351" depart="351.0" fromJunction="3way_339" toJunction="3way_299"/>
<trip id="352" depart="352.0" fromJunction="3way_395" toJunction="4way_321"/>
<trip id="353" depart="353.0" fromJunction="3way_199" toJunction="4way_302"/>
<trip id="354" depart="354.0" fromJunction="4way_335" toJunction="3way_179"/>
<trip id="355" depart="355.0" fromJunction="4way_129" toJunction="3way_160"/>
<trip id="356" depart="356.0" fromJunction="4way_27" toJunction="4way_34"/>
<trip id="357" depart="357.0" fromJunction="4way_161" toJunction="3way_240"/>
<trip id="358" depart="358.0" fromJunction="4way_248" toJunction="4way_206"/>
<trip id="359" depart="359.0" fromJunction="4way_94" toJunction="4way_264"/>
<trip id="360" depart="360.0" fromJunction="4way_177" toJunction="4way_213"/>
<trip id="361" depart="361.0" fromJunction="4way_276" toJunction="3way_12"/>
<trip id="362" depart="362.0" fromJunction="4way_136" toJunction="4way_245"/>
<trip id="363" depart="363.0" fromJunction="4way_278" toJunction="4way_92"/>
<trip id="364" depart="364.0" fromJunction="4way_25" toJunction="4way_273"/>
<trip id="365" depart="365.0" fromJunction="4way_125" toJunction="4way_28"/>
<trip id="366" depart="366.0" fromJunction="4way_282" toJunction="4way_25"/>
<trip id="367" depart="367.0" fromJunction="4way_371" toJunction="4way_347"/>
<trip id="368" depart="368.0" fromJunction="4way_208" toJunction="4way_43"/>
<trip id="369" depart="369.0" fromJunction="3way_180" toJunction="3way_388"/>
<trip id="370" depart="370.0" fromJunction="4way_158" toJunction="3way_39"/>
<trip id="371" depart="371.0" fromJunction="3way_40" toJunction="3way_2"/>
<trip id="372" depart="372.0" fromJunction="3way_319" toJunction="4way_190"/>
<trip id="373" depart="373.0" fromJunction="4way_312" toJunction="4way_176"/>
<trip id="374" depart="374.0" fromJunction="4way_88" toJunction="4way_118"/>
<trip id="375" depart="375.0" fromJunction="4way_49" toJunction="4way_223"/>
<trip id="376" depart="376.0" fromJunction="4way_188" toJunction="4way_197"/>
<trip id="377" depart="377.0" fromJunction="4way_136" toJunction="4way_322"/>
<trip id="378" depart="378.0" fromJunction="3way_1" toJunction="4way_85"/>
<trip id="379" depart="379.0" fromJunction="4way_24" toJunction="4way_182"/>
<trip id="380" depart="380.0" fromJunction="4way_47" toJunction="4way_355"/>
<trip id="381" depart="381.0" fromJunction="4way_164" toJunction="4way_306"/>
<trip id="382" depart="382.0" fromJunction="4way_317" toJunction="4way_156"/>
<trip id="383" depart="383.0" fromJunction="4way_125" toJunction="4way_318"/>
<trip id="384" depart="384.0" fromJunction="4way_174" toJunction="4way_118"/>
<trip id="385" depart="385.0" fromJunction="4way_142" toJunction="4way_331"/>
<trip id="386" depart="386.0" fromJunction="3way_140" toJunction="4way_281"/>
<trip id="387" depart="387.0" fromJunction="4way_183" toJunction="4way_137"/>