<routes xmlns:xsi="http://www.w3.org/2001/XMLSchema-instance" xsi:noNamespaceSchemaLocation="http://sumo.dlr.de/xsd/routes_file.xsd">
<trip id="0" depart="0.0" fromJunction="4way_12" toJunction="4way_26"/>
<trip id="1" depart="0.625" fromJunction="4way_26" toJunction="4way_11"/>
<trip id="2" depart="1.25" fromJunction="4way_27" toJunction="4way_17"/>
<trip id="3" depart="1.875" fromJunction="4way_53" toJunction="4way_25"/>
<trip id="4" depart="2.5" fromJunction="3way_8" toJunction="4way_38"/>
<trip id="5" depart="3.125" fromJunction="4way_18" toJunction="4way_52"/>
<trip id="6" depart="3.75" fromJunction="4way_22" toJunction="4way_42"/>
<trip id="7" depart="4.375" fromJunction="3way_6" toJunction="3way_5"/>
<trip id="8" depart="5.0" fromJunction="4way_21" toJunction="3way_2"/>
<trip id="9" depart="5.625" fromJunction="4way_45" toJunction="4way_44"/>
<trip id="10" depart="6.25" fromJunction="4way_52" toJunction="4way_46"/>
<trip id="11" depart="6.875" fromJunction="4way_44" toJunction="4way_33"/>
<trip id="12" depart="7.5" fromJunction="4way_27" toJunction="3way_23"/>
<trip id="13" depart="8.125" fromJunction="4way_30" toJunction="3way_31"/>
<trip id="14" depart="8.75" fromJunction="4way_9" toJunction="4way_18"/>
<trip id="15" depart="9.375" fromJunction="4way_44" toJunction="3way_59"/>
<trip id="16" depart="10.0" fromJunction="4way_42" toJunction="4way_33"/>
<trip id="17" depart="10.625" fromJunction="4way_19" toJunction="3way_2"/>
<trip id="18" depart="11.25" fromJunction="4way_19" toJunction="4way_11"/>
<trip id="19" depart="11.875" fromJunction="4way_43" toJunction="4way_30"/>
<trip id="20" depart="12.5" fromJunction="4way_25" toJunction="3way_24"/>
<trip id="21" depart="13.125" fromJunction="3way_4" toJunction="4way_51"/>
<trip id="22" depart="13.75" fromJunction="3way_23" toJunction="3way_62"/>
<trip id="23" depart="14.375" fromJunction="3way_24" toJunction="3way_48"/>
<trip id="24" depart="15.0" fromJunction="4way_25" toJunction="4way_42"/>
<trip id="25" depart="15.625" fromJunction="3way_15" toJunction="4way_54"/>
<trip id="26" depart="16.25" fromJunction="3way_39" toJunction="3way_62"/>
<trip id="27" depart="16.875" fromJunction="3way_59" toJunction="4way_35"/>
<trip id="28" depart="17.5" fromJunction="3way_60" toJunction="4way_33"/>
<trip id="29" depart="18.125" fromJunction="3way_15" toJunction="3way_39"/>
<trip id="30" depart="18.75" fromJunction="3way_31" toJunction="4way_35"/>
<trip id="31" depart="19.375" fromJunction="3way_16" toJunction="3way_55"/>
<trip id="32" depart="20.0" fromJunction="3way_6" toJunction="4way_21"/>
<trip id="33" depart="20.625" fromJunction="3way_6" toJunction="4way_29"/>
<trip id="34" depart="21.25" fromJunction="4way_41" toJunction="4way_46"/>
<trip id="35" depart="21.875" fromJunction="4way_11" toJunction="4way_46"/>
<trip id="36" depart="22.5" fromJunction="3way_3" toJunction="4way_28"/>
<trip id="37" depart="23.125" fromJunction="3way_23" toJunction="3way_58"/>
<trip id="38" depart="23.75" fromJunction="3way_23" toJunction="3way_57"/>
<trip id="39" depart="24.375" fromJunction="4way_9" toJunction="3way_40"/>
<trip id="40" depart="25.0" fromJunction="4way_51" toJunction="3way_4"/>
<trip id="41" depart="25.625" fromJunction="3way_59" toJunction="4way_34"/>
<trip id="42" depart="26.25" fromJunction="3way_6" toJunction="4way_18"/>
<trip id="43" depart="26.875" fromJunction="4way_22" toJunction="4way_42"/>
<trip id="44" depart="27.5" fromJunction="4way_43" toJunction="3way_40"/>
<trip id="45" depart="28.125" fromJunction="4way_12" toJunction="3way_23"/>
<trip id="46" depart="28.75" fromJunction="3way_47" toJunction="3way_57"/>
<trip id="47" depart="29.375" fromJunction="3way_2" toJunction="4way_50"/>
<trip id="48" depart="30.0" fromJunction="3way_1" toJunction="4way_21"/>
<trip id="49" depart="30.625" fromJunction="3way_58" toJunction="4way_43"/>
<trip id="50" depart="31.25" fromJunction="4way_38" toJunction="4way_28"/>
<trip id="51" depart="31.875" fromJunction="4way_42" toJunction="3way_60"/>
<trip id="52" depart="32.5" fromJunction="4way_42" toJunction="4way_50"/>
<trip id="53" depart="33.125" fromJunction="4way_38" toJunction="3way_61"/>
<trip id="54" depart="33.75" fromJunction="4way_29" toJunction="4way_25"/>
<trip id="55" depart="34.375" fromJunction="3way_57" toJunction="4way_51"/>
<trip id="56" depart="35.0" fromJunction="3way_8" toJunction="4way_13"/>
<trip id="57" depart="35.625" fromJunction="4way_42" toJunction="4way_45"/>
<trip id="58" depart="36.25" fromJunction="4way_51" toJunction="4way_45"/>
<trip id="59" depart="36.875" fromJunction="4way_10" toJunction="4way_20"/>
<trip id="60" depart="37.5" fromJunction="4way_27" toJunction="4way_38"/>
<trip id="61" depart="38.125" fromJunction="4way_11" toJunction="4way_17"/>
<trip id="62" depart="38.75" fromJunction="3way_48" toJunction="3way_2"/>
<trip id="63" depart="39.375" fromJunction="3way_57" toJunction="4way_35"/>
<trip id="64" depart="40.0" fromJunction="4way_17" toJunction="4way_19"/>
<trip id="65" depart="40.625" fromJunction="3way_57" toJunction="3way_31"/>
<trip id="66" depart="41.25" fromJunction="4way_50" toJunction="4way_42"/>
<trip id="67" depart="41.875" fromJunction="4way_35" toJunction="4way_42"/>
<trip id="68" depart="42.5" fromJunction="4way_17" toJunction="4way_35"/>
<trip id="69" depart="43.125" fromJunction="3way_16" toJunction="4way_53"/>
<trip id="70" depart="43.75" fromJunction="4way_53" toJunction="4way_25"/>
<trip id="71" depart="44.375" fromJunction="4way_12" toJunction="4way_13"/>
<trip id="72" depart="45.0" fromJunction="4way_22" toJunction="3way_15"/>
<trip id="73" depart="45.625" fromJunction="4way_54" toJunction="4way_12"/>
<trip id="74" depart="46.25" fromJunction="4way_45" toJunction="3way_31"/>
<trip id="75" depart="46.875" fromJunction="4way_11" toJunction="3way_39"/>
<trip id="76" depart="47.5" fromJunction="4way_29" toJunction="3way_23"/>
<trip id="77" depart="48.125" fromJunction="4way_42" toJunction="4way_13"/>
<trip id="78" depart="48.75" fromJunction="3way_5" toJunction="4way_9"/>
<trip id="79" depart="49.375" fromJunction="4way_33" toJunction="4way_51"/>
<trip id="80" depart="50.0" fromJunction="4way_37" toJunction="4way_20"/>
<trip id="81" depart="50.625" fromJunction="4way_37" toJunction="4way_46"/>
<trip id="82" depart="51.25" fromJunction="3way_24" toJunction="3way_1"/>
<trip id="83" depart="51.875" fromJunction="3way_47" toJunction="4way_20"/>
<trip id="84" depart="52.5" fromJunction="3way_4" toJunction="4way_18"/>
<trip id="85" depart="53.125" fromJunction="3way_2" toJunction="3way_55"/>
<trip id="86" depart="53.75" fromJunction="3way_61" toJunction="4way_52"/>
<trip id="87" depart="54.375" fromJunction="4way_22" toJunction="3way_32"/>
<trip id="88" depart="55.0" fromJunction="3way_2" toJunction="4way_12"/>
<trip id="89" depart="55.625" fromJunction="4way_19" toJunction="3way_39"/>
<trip id="90" depart="56.25" fromJunction="3way_60" toJunction="4way_42"/>
<trip id="91" depart="56.875" fromJunction="4way_11" toJunction="4way_30"/>
<trip id="92" depart="57.5" fromJunction="4way_50" toJunction="4way_26"/>
<trip id="93" depart="58.125" fromJunction="3way_48" toJunction="4way_20"/>
<trip id="94" depart="58.75" fromJunction="3way_62" toJunction="3way_8"/>
<trip id="95" depart="59.375" fromJunction="4way_30" toJunction="3way_55"/>
<trip id="96" depart="60.0" fromJunction="4way_49" toJunction="4way_28"/>
<trip id="97" depart="60.625" fromJunction="3way_59" toJunction="3way_61"/>
<trip id="98" depart="61.25" fromJunction="4way_25" toJunction="3way_4"/>
<trip id="99" depart="61.875" fromJunction="4way_51" toJunction="3way_48"/>
<trip id="100" depart="62.5" fromJunction="3way_47" toJunction="3way_16"/>
<trip id="101" depart="63.125" fromJunction="3way_5" toJunction="3way_2"/>
<trip id="102" depart="63.75" fromJunction="4way_33" toJunction="4way_43"/>
<trip id="103" depart="64.375" fromJunction="4way_53" toJunction="4way_26"/>
<trip id="104" depart="65.0" fromJunction="3way_61" toJunction="4way_54"/>
<trip id="105" depart="65.625" fromJunction="3way_59" toJunction="4way_35"/>
<trip id="106" depart="66.25" fromJunction="4way_36" toJunction="3way_2"/>
<trip id="107" depart="66.875" fromJunction="3way_8" toJunction="3way_40"/>
<trip id="108" depart="67.5" fromJunction="4way_21" toJunction="4way_50"/>
<trip id="109" depart="68.125" fromJunction="4way_45" toJunction="4way_19"/>
<trip id="110" depart="68.75" fromJunction="4way_52" toJunction="3way_58"/>
<trip id="111" depart="69.375" fromJunction="4way_38" toJunction="3way_55"/>
<trip id="112" depart="70.0" fromJunction="3way_62" toJunction="4way_51"/>
<trip id="113" depart="70.625" fromJunction="4way_20" toJunction="4way_30"/>
<trip id="114" depart="71.25" fromJunction="3way_62" toJunction="3way_59"/>
<trip id="115" depart="71.875" fromJunction="3way_2" toJunction="4way_18"/>
<trip id="116" depart="72.5" fromJunction="4way_17" toJunction="3way_62"/>
<trip id="117" depart="73.125" fromJunction="4way_33" toJunction="3way_16"/>
<trip id="118" depart="73.75" fromJunction="4way_50" toJunction="3way_58"/>
<trip id="119" depart="74.375" fromJunction="3way_23" toJunction="4way_37"/>
<trip id="120" depart="75.0" fromJunction="3way_23" toJunction="4way_18"/>
<trip id="121" depart="75.625" fromJunction="3way_8" toJunction="4way_20"/>
<trip id="122" depart="76.25" fromJunction="3way_47" toJunction="4way_34"/>
<trip id="123" depart="76.875" fromJunction="4way_49" toJunction="3way_31"/>
<trip id="124" depart="77.5" fromJunction="4way_30" toJunction="3way_24"/>
<trip id="125" depart="78.125" fromJunction="4way_28" toJunction="4way_36"/>
<trip id="126" depart="78.75" fromJunction="3way_6" toJunction="4way_14"/>
<trip id="127" depart="79.375" fromJunction="4way_50" toJunction="4way_34"/>
<trip id="128" depart="80.0" fromJunction="3way_57" toJunction="4way_38"/>
<trip id="129" depart="80.625" fromJunction="3way_15" toJunction="3way_60"/>
<trip id="130" depart="81.25" fromJunction="4way_22" toJunction="3way_1"/>
<trip id="131" depart="81.875" fromJunction="4way_52" toJunction="4way_43"/>
<trip id="132" depart="82.5" fromJunction="4way_50" toJunction="3way_58"/>
<trip id="133" depart="83.125" fromJunction="4way_49" toJunction="3way_4"/>
<trip id="134" depart="83.75" fromJunction="4way_45" toJunction="4way_46"/>
<trip id="135" depart="84.375" fromJunction="4way_38" toJunction="3way_32"/>
<trip id="136" depart="85.0" fromJunction="4way_30" toJunction="3way_61"/>
<trip id="137" depart="85.625" fromJunction="4way_52" toJunction="4way_30"/>
<trip id="138" depart="86.25" fromJunction="4way_45" toJunction="4way_19"/>
<trip id="139" depart="86.875" fromJunction="4way_29" toJunction="3way_57"/>
<trip id="140" depart="87.5" fromJunction="3way_1" toJunction="4way_19"/>
<trip id="141" depart="88.125" fromJunction="3way_31" toJunction="3way_32"/>
<trip id="142" depart="88.75" fromJunction="4way_41" toJunction="4way_46"/>
<trip id="143" depart="89.375" fromJunction="4way_27" toJunction="4way_49"/>
<trip id="144" depart="90.0" fromJunction="3way_31" toJunction="3way_16"/>
<trip id="145" depart="90.625" fromJunction="3way_55" toJunction="4way_21"/>
<trip id="146" depart="91.25" fromJunction="3way_61" toJunction="4way_10"/>
<trip id="147" depart="91.875" fromJunction="4way_37" toJunction="3way_6"/>
<trip id="148" depart="92.5" fromJunction="4way_38" toJunction="4way_46"/>
<trip id="149" depart="93.125" fromJunction="4way_44" toJunction="4way_14"/>
<trip id="150" depart="93.75" fromJunction="3way_5" toJunction="3way_40"/>
<trip id="151" depart="94.375" fromJunction="3way_61" toJunction="4way_9"/>
<trip id="152" depart="95.0" fromJunction="3way_4" toJunction="3way_23"/>
<trip id="153" depart="95.625" fromJunction="3way_1" toJunction="4way_20"/>
<trip id="154" depart="96.25" fromJunction="3way_31" toJunction="4way_44"/>
<trip id="155" depart="96.875" fromJunction="3way_6" toJunction="3way_5"/>
<trip id="156" depart="97.5" fromJunction="3way_60" toJunction="4way_43"/>
<trip id="157" depart="98.125" fromJunction="4way_34" toJunction="4way_17"/>
<trip id="158" depart="98.75" fromJunction="4way_20" toJunction="4way_37"/>
<trip id="159" depart="99.375" fromJunction="3way_23" toJunction="3way_58"/>
<trip id="160" depart="100.0" fromJunction="3way_48" toJunction="3way_4"/>
<trip id="161" depart="100.625" fromJunction="4way_33" toJunction="3way_59"/>
<trip id="162" depart="101.25" fromJunction="4way_51" toJunction="4way_43"/>
<trip id="163" depart="101.875" fromJunction="3way_16" toJunction="3way_57"/>
<trip id="164" depart="102.5" fromJunction="4way_52" toJunction="3way_47"/>
<trip id="165" depart="103.125" fromJunction="4way_51" toJunction="3way_4"/>
<trip id="166" depart="103.75" fromJunction="3way_16" toJunction="3way_59"/>
<trip id="167" depart="104.375" fromJunction="3way_58" toJunction="4way_50"/>
<trip id="168" depart="105.0" fromJunction="3way_55" toJunction="3way_16"/>
<trip id="169" depart="105.625" fromJunction="3way_3" toJunction="4way_33"/>
<trip id="170" depart="106.25" fromJunction="3way_5" toJunction="4way_52"/>
<trip id="171" depart="106.875" fromJunction="3way_48" toJunction="4way_18"/>
<trip id="172" depart="107.5" fromJunction="4way_38" toJunction="4way_42"/>
<trip id="173" depart="108.125" fromJunction="3way_3" toJunction="4way_27"/>
<trip id="174" depart="108.75" fromJunction="4way_10" toJunction="4way_17"/>
<trip id="175" depart="109.375" fromJunction="4way_43" toJunction="4way_26"/>
<trip id="176" depart="110.0" fromJunction="3way_23" toJunction="3way_58"/>
<trip id="177" depart="110.625" fromJunction="4way_38" toJunction="3way_8"/>
<trip id="178" depart="111.25" fromJunction="4way_14" toJunction="3way_55"/>
<trip id="179" depart="111.875" fromJunction="4way_33" toJunction="4way_26"/>
<trip id="180" depart="112.5" fromJunction="4way_33" toJunction="4way_45"/>
<trip id="181" depart="113.125" fromJunction="3way_8" toJunction="4way_20"/>
<trip id="182" depart="113.75" fromJunction="4way_51" toJunction="4way_14"/>
<trip id="183" depart="114.375" fromJunction="3way_40" toJunction="4way_51"/>
<trip id="184" depart="115.0" fromJunction="4way_27" toJunction="4way_36"/>
<trip id="185" depart="115.625" fromJunction="3way_39" toJunction="3way_60"/>
<trip id="186" depart="116.25" fromJunction="4way_38" toJunction="4way_52"/>
<trip id="187" depart="116.875" fromJunction="4way_50" toJunction="4way_33"/>
<trip id="188" depart="117.5" fromJunction="4way_33" toJunction="4way_37"/>
<trip id="189" depart="118.125" fromJunction="4way_42" toJunction="4way_38"/>
<trip id="190" depart="118.75" fromJunction="4way_14" toJunction="4way_21"/>
<trip id="191" depart="119.375" fromJunction="3way_39" toJunction="4way_13"/>
<trip id="192" depart="120.0" fromJunction="3way_8" toJunction="4way_19"/>
<trip id="193" depart="120.625" fromJunction="4way_17" toJunction="3way_4"/>
<trip id="194" depart="121.25" fromJunction="4way_29" toJunction="3way_59"/>
<trip id="195" depart="121.875" fromJunction="4way_38" toJunction="3way_2"/>
<trip id="196" depart="122.5" fromJunction="3way_55" toJunction="3way_1"/>
<trip id="197" depart="123.125" fromJunction="4way_22" toJunction="4way_9"/>
<trip id="198" depart="123.75" fromJunction="4way_30" toJunction="3way_6"/>
<trip id="199" depart="124.375" fromJunction="4way_33" toJunction="4way_45"/>
<trip id="200" depart="125.0" fromJunction="3way_61" toJunction="3way_40"/>
<trip id="201" depart="125.625" fromJunction="3way_2" toJunction="4way_11"/>
<trip id="202" depart="126.25" fromJunction="4way_17" toJunction="3way_1"/>
<trip id="203" depart="126.875" fromJunction="3way_59" toJunction="3way_5"/>
<trip id="204" depart="127.5" fromJunction="3way_59" toJunction="3way_61"/>
<trip id="205" depart="128.125" fromJunction="3way_1" toJunction="3way_23"/>
<trip id="206" depart="128.75" fromJunction="4way_19" toJunction="3way_15"/>
<trip id="207" depart="129.375" fromJunction="4way_54" toJunction="4way_46"/>
<trip id="208" depart="130.0" fromJunction="3way_39" toJunction="4way_9"/>
<trip id="209" depart="130.625" fromJunction="4way_49" toJunction="4way_27"/>
<trip id="210" depart="131.25" fromJunction="3way_4" toJunction="4way_54"/>
<trip id="211" depart="131.875" fromJunction="3way_57" toJunction="4way_44"/>
<trip id="212" depart="132.5" fromJunction="4way_35" toJunction="3way_60"/>
<trip id="213" depart="133.125" fromJunction="4way_35" toJunction="3way_60"/>
<trip id="214" depart="133.75" fromJunction="4way_17" toJunction="4way_18"/>
<trip id="215" depart="134.375" fromJunction="3way_57" toJunction="4way_34"/>
<trip id="216" depart="135.0" fromJunction="4way_9" toJunction="4way_12"/>
<trip id="217" depart="135.625" fromJunction="4way_21" toJunction="3way_24"/>
<trip id="218" depart="136.25" fromJunction="3way_3" toJunction="4way_22"/>
<trip id="219" depart="136.875" fromJunction="3way_32" toJunction="3way_61"/>
<trip id="220" depart="137.5" fromJunction="4way_54" toJunction="4way_13"/>
<trip id="221" depart="138.125" fromJunction="4way_14" toJunction="4way_46"/>
<trip id="222" depart="138.75" fromJunction="4way_54" toJunction="3way_57"/>
<trip id="223" depart="139.375" fromJunction="3way_15" toJunction="3way_60"/>
<trip id="224" depart="140.0" fromJunction="3way_60" toJunction="4way_38"/>
<trip id="225" depart="140.625" fromJunction="3way_4" toJunction="4way_51"/>
<trip id="226" depart="141.25" fromJunction="4way_45" toJunction="4way_20"/>
<trip id="227" depart="141.875" fromJunction="3way_16" toJunction="3way_58"/>
<trip id="228" depart="142.5" fromJunction="4way_28" toJunction="3way_16"/>
<trip id="229" depart="143.125" fromJunction="3way_47" toJunction="3way_60"/>
<trip id="230" depart="143.75" fromJunction="3way_48" toJunction="4way_25"/>
<trip id="231" depart="144.375" fromJunction="3way_60" toJunction="4way_29"/>
<trip id="232" depart="145.0" fromJunction="4way_30" toJunction="4way_10"/>
<trip id="233" depart="145.625" fromJunction="4way_45" toJunction="4way_27"/>
<trip id="234" depart="146.25" fromJunction="4way_36" toJunction="4way_30"/>
<trip id="235" depart="146.875" fromJunction="4way_46" toJunction="4way_51"/>
<trip id="236" depart="147.5" fromJunction="4way_33" toJunction="4way_54"/>
<trip id="237" depart="148.125" fromJunction="3way_57" toJunction="3way_5"/>
<trip id="238" depart="148.75" fromJunction="4way_17" toJunction="3way_39"/>
<trip id="239" depart="149.375" fromJunction="4way_11" toJunction="3way_23"/>
<trip id="240" depart="150.0" fromJunction="4way_53" toJunction="3way_16"/>
<trip id="241" depart="150.625" fromJunction="4way_26" toJunction="4way_46"/>
<trip id="242" depart="151.25" fromJunction="4way_50" toJunction="3way_58"/>
<trip id="243" depart="151.875" fromJunction="4way_9" toJunction="4way_53"/>
<trip id="244" depart="152.5" fromJunction="3way_58" toJunction="4way_34"/>
<trip id="245" depart="153.125" fromJunction="4way_9" toJunction="4way_33"/>
<trip id="246" depart="153.75" fromJunction="4way_10" toJunction="3way_60"/>
<trip id="247" depart="154.375" fromJunction="3way_16" toJunction="3way_48"/>
<trip id="248" depart="155.0" fromJunction="4way_36" toJunction="4way_18"/>
<trip id="249" depart="155.625" fromJunction="4way_22" toJunction="3way_32"/>
<trip id="250" depart="156.25" fromJunction="3way_3" toJunction="4way_37"/>
<trip id="251" depart="156.875" fromJunction="4way_25" toJunction="3way_59"/>
<trip id="252" depart="157.5" fromJunction="3way_32" toJunction="3way_15"/>
<trip id="253" depart="158.125" fromJunction="4way_43" toJunction="4way_28"/>
<trip id="254" depart="158.75" fromJunction="4way_12" toJunction="4way_19"/>
<trip id="255" depart="159.375" fromJunction="3way_32" toJunction="3way_62"/>
<trip id="256" depart="160.0" fromJunction="4way_45" toJunction="4way_43"/>
<trip id="257" depart="160.625" fromJunction="3way_58" toJunction="4way_26"/>
<trip id="258" depart="161.25" fromJunction="4way_12" toJunction="3way_2"/>
<trip id="259" depart="161.875" fromJunction="3way_16" toJunction="3way_1"/>
<trip id="260" depart="162.5" fromJunction="4way_22" toJunction="4way_18"/>
<trip id="261" depart="163.125" fromJunction="4way_9" toJunction="3way_6"/>
<trip id="262" depart="163.75" fromJunction="3way_32" toJunction="3way_2"/>
<trip id="263" depart="164.375" fromJunction="3way_58" toJunction="4way_19"/>
<trip id="264" depart="165.0" fromJunction="3way_15" toJunction="3way_62"/>
<trip id="265" depart="165.625" fromJunction="4way_51" toJunction="4way_42"/>
<trip id="266" depart="166.25" fromJunction="4way_30" toJunction="4way_43"/>
<trip id="267" depart="166.875" fromJunction="4way_27" toJunction="3way_1"/>
<trip id="268" depart="167.5" fromJunction="4way_50" toJunction="4way_11"/>
<trip id="269" depart="168.125" fromJunction="3way_2" toJunction="4way_38"/>
<trip id="270" depart="168.75" fromJunction="4way_13" toJunction="4way_51"/>
<trip id="271" depart="169.375" fromJunction="3way_32" toJunction="4way_10"/>
<trip id="272" depart="170.0" fromJunction="3way_6" toJunction="4way_52"/>
<trip id="273" depart="170.625" fromJunction="4way_18" toJunction="4way_25"/>
<trip id="274" depart="171.25" fromJunction="3way_6" toJunction="4way_51"/>
<trip id="275" depart="171.875" fromJunction="4way_9" toJunction="3way_61"/>
<trip id="276" depart="172.5" fromJunction="4way_53" toJunction="4way_19"/>
<trip id="277" depart="173.125" fromJunction="3way_31" toJunction="4way_19"/>
<trip id="278" depart="173.75" fromJunction="4way_45" toJunction="4way_46"/>
<trip id="279" depart="174.375" fromJunction="4way_22" toJunction="4way_10"/>
<trip id="280" depart="175.0" fromJunction="4way_22" toJunction="4way_26"/>
<trip id="281" depart="175.625" fromJunction="4way_46" toJunction="4way_21"/>
<trip id="282" depart="176.25" fromJunction="3way_3" toJunction="4way_22"/>
<trip id="283" depart="176.875" fromJunction="3way_8" toJunction="3way_47"/>
<trip id="284" depart="177.5" fromJunction="3way_48" toJunction="4way_38"/>
<trip id="285" depart="178.125" fromJunction="4way_53" toJunction="3way_39"/>
<trip id="286" depart="178.75" fromJunction="4way_14" toJunction="4way_25"/>
<trip id="287" depart="179.375" fromJunction="4way_35" toJunction="3way_39"/>
<trip id="288" depart="180.0" fromJunction="3way_5" toJunction="4way_25"/>
<trip id="289" depart="180.625" fromJunction="3way_60" toJunction="4way_51"/>
<trip id="290" depart="181.25" fromJunction="3way_4" toJunction="3way_3"/>
<trip id="291" depart="181.875" fromJunction="4way_14" toJunction="3way_4"/>
<trip id="292" depart="182.5" fromJunction="4way_53" toJunction="4way_28"/>
<trip id="293" depart="183.125" fromJunction="4way_18" toJunction="4way_43"/>
<trip id="294" depart="183.75" fromJunction="4way_54" toJunction="3way_48"/>
<trip id="295" depart="184.375" fromJunction="4way_41" toJunction="3way_24"/>
<trip id="296" depart="185.0" fromJunction="4way_46" toJunction="3way_16"/>
<trip id="297" depart="185.625" fromJunction="3way_40" toJunction="3way_47"/>
<trip id="298" depart="186.25" fromJunction="3way_4" toJunction="4way_43"/>
<trip id="299" depart="186.875" fromJunction="4way_41" toJunction="4way_11"/>
<trip id="300" depart="187.5" fromJunction="3way_60" toJunction="3way_57"/>
<trip id="301" depart="188.125" fromJunction="3way_16" toJunction="4way_10"/>
<trip id="302" depart="188.75" fromJunction="3way_32" toJunction="4way_33"/>
<trip id="303" depart="189.375" fromJunction="3way_31" toJunction="4way_46"/>
<trip id="304" depart="190.0" fromJunction="3way_32" toJunction="3way_6"/>
<trip id="305" depart="190.625" fromJunction="4way_35" toJunction="4way_50"/>
<trip id="306" depart="191.25" fromJunction="4way_54" toJunction="3way_8"/>
<trip id="307" depart="191.875" fromJunction="4way_20" toJunction="3way_24"/>
<trip id="308" depart="192.5" fromJunction="4way_13" toJunction="4way_27"/>
<trip id="309" depart="193.125" fromJunction="4way_53" toJunction="4way_46"/>
<trip id="310" depart="193.75" fromJunction="4way_51" toJunction="4way_36"/>
<trip id="311" depart="194.375" fromJunction="3way_31" toJunction="3way_32"/>
<trip id="312" depart="195.0" fromJunction="3way_60" toJunction="3way_4"/>
<trip id="313" depart="195.625" fromJunction="4way_18" toJunction="4way_17"/>
<trip id="314" depart="196.25" fromJunction="4way_38" toJunction="4way_44"/>
<trip id="315" depart="196.875" fromJunction="3way_15" toJunction="3way_23"/>
<trip id="316" depart="197.5" fromJunction="4way_28" toJunction="4way_50"/>
<trip id="317" depart="198.125" fromJunction="4way_30" toJunction="4way_29"/>
<trip id="318" depart="198.75" fromJunction="3way_8" toJunction="4way_54"/>
<trip id="319" depart="199.375" fromJunction="3way_31" toJunction="3way_16"/>
<trip id="320" depart="200.0" fromJunction="4way_35" toJunction="4way_51"/>
<trip id="321" depart="200.625" fromJunction="3way_6" toJunction="4way_37"/>
<trip id="322" depart="201.25" fromJunction="4way_42" toJunction="4way_49"/>
<trip id="323" depart="201.875" fromJunction="3way_47" toJunction="3way_60"/>
<trip id="324" depart="202.5" fromJunction="3way_4" toJunction="4way_37"/>
<trip id="325" depart="203.125" fromJunction="3way_15" toJunction="4way_41"/>
<trip id="326" depart="203.75" fromJunction="4way_46" toJunction="4way_33"/>
<trip id="327" depart="204.375" fromJunction="4way_37" toJunction="4way_17"/>
<trip id="328" depart="205.0" fromJunction="3way_58" toJunction="3way_23"/>
<trip id="329" depart="205.625" fromJunction="3way_8" toJunction="4way_9"/>
<trip id="330" depart="206.25" fromJunction="3way_32" toJunction="4way_43"/>
<trip id="331" depart="206.875" fromJunction="4way_27" toJunction="4way_12"/>
<trip id="332" depart="207.5" fromJunction="4way_17" toJunction="3way_8"/>
<trip id="333" depart="208.125" fromJunction="3way_5" toJunction="4way_11"/>
<trip id="334" depart="208.75" fromJunction="4way_35" toJunction="4way_21"/>
<trip id="335" depart="209.375" fromJunction="4way_26" toJunction="4way_20"/>
<trip id="336" depart="210.0" fromJunction="4way_9" toJunction="3way_15"/>
<trip id="337" depart="210.625" fromJunction="3way_40" toJunction="4way_9"/>
<trip id="338" depart="211.25" fromJunction="4way_28" toJunction="3way_2"/>
<trip id="339" depart="211.875" fromJunction="4way_11" toJunction="3way_15"/>
<trip id="340" depart="212.5" fromJunction="4way_27" toJunction="4way_12"/>
<trip id="341" depart="213.125" fromJunction="3way_15" toJunction="4way_38"/>
<trip id="342" depart="213.75" fromJunction="3way_2" toJunction="4way_45"/>
<trip id="343" depart="214.375" fromJunction="4way_9" toJunction="4way_26"/>
<trip id="344" depart="215.0" fromJunction="3way_24" toJunction="4way_18"/>
<trip id="345" depart="215.625" fromJunction="3way_2" toJunction="3way_55"/>
<trip id="346" depart="216.25" fromJunction="4way_29" toJunction="4way_18"/>
<trip id="347" depart="216.875" fromJunction="3way_61" toJunction="3way_16"/>
<trip id="348" depart="217.5" fromJunction="3way_6" toJunction="3way_5"/>
<trip id="349" depart="218.125" fromJunction="3way_15" toJunction="3way_61"/>
<trip id="350" depart="218.75" fromJunction="3way_4" toJunction="3way_59"/>
<trip id="351" depart="219.375" fromJunction="4way_37" toJunction="3way_4"/>
<trip id="352" depart="220.0" fromJunction="4way_34" toJunction="3way_39"/>
<trip id="353" depart="220.625" fromJunction="4way_33" toJunction="4way_44"/>
<trip id="354" depart="221.25" fromJunction="3way_55" toJunction="3way_39"/>
<trip id="355" depart="221.875" fromJunction="4way_18" toJunction="4way_17"/>
<trip id="356" depart="222.5" fromJunction="4way_44" toJunction="3way_32"/>
<trip id="357" depart="223.125" fromJunction="4way_22" toJunction="4way_36"/>
<trip id="358" depart="223.75" fromJunction="4way_53" toJunction="3way_2"/>
<trip id="359" depart="224.375" fromJunction="4way_45" toJunction="3way_8"/>
<trip id="360" depart="225.0" fromJunction="4way_54" toJunction="4way_51"/>
<trip id="361" depart="225.625" fromJunction="3way_24" toJunction="4way_36"/>
<trip id="362" depart="226.25" fromJunction="3way_16" toJunction="4way_10"/>
<trip id="363" depart="226.875" fromJunction="3way_59" toJunction="3way_24"/>
<trip id="364" depart="227.5" fromJunction="4way_43" toJunction="4way_49"/>
<trip id="365" depart="228.125" fromJunction="4way_18" toJunction="3way_58"/>
<trip id="366" depart="228.75" fromJunction="3way_39" toJunction="3way_23"/>
<trip id="367" depart="229.375" fromJunction="4way_46" toJunction="3way_3"/>
<trip id="368" depart="230.0" fromJunction="3way_47" toJunction="3way_1"/>
<trip id="369" depart="230.625" fromJunction="3way_5" toJunction="4way_11"/>
<trip id="370" depart="231.25" fromJunction="4way_20" toJunction="4way_45"/>
<trip id="371" depart="231.875" fromJunction="4way_10" toJunction="4way_38"/>
<trip id="372" depart="232.5" fromJunction="4way_26" toJunction="3way_48"/>
<trip id="373" depart="233.125" fromJunction="4way_18" toJunction="4way_22"/>
<trip id="374" depart="233.75" fromJunction="4way_45" toJunction="3way_58"/>
<trip id="375" depart="234.375" fromJunction="3way_1" toJunction="3way_16"/>
<trip id="376" depart="235.0" fromJunction="3way_40" toJunction="3way_60"/>
<trip id="377" depart="235.625" fromJunction="4way_33" toJunction="4way_37"/>
<trip id="378" depart="236.25" fromJunction="3way_32" toJunction="4way_25"/>
<trip id="379" depart="236.875" fromJunction="4way_30" toJunction="4way_45"/>
<trip id="380" depart="237.5" fromJunction="3way_16" toJunction="4way_54"/>
<trip id="381" depart="238.125" fromJunction="4way_52" toJunction="4way_38"/>
<trip id="382" depart="238.75" fromJunction="3way_60" toJunction="4way_43"/>
<trip id="383" depart="239.375" fromJunction="3way_39" toJunction="3way_62"/>
<trip id="384" depart="240.0" fromJunction="3way_57" toJunction="4way_22"/>
<trip id="385" depart="240.625" fromJunction="4way_49" toJunction="4way_33"/>
<trip id="386" depart="241.25" fromJunction="4way_29" toJunction="4way_44"/>
<trip id="387" depart="241.875" fromJunction="4way_17" toJunction="3way_31"/>
<trip id="388" depart="242.5" fromJunction="4way_21" toJunction="4way_29"/>
<trip id="389" depart="243.125" fromJunction="3way_39" toJunction="3way_15"/>
<trip id="390" depart="243.75" fromJunction="3way_5" toJunction="3way_48"/>