<?xml version="1.0" encoding="UTF-8"?>
<nodes xmlns:xsi="http://www.w3.org/2001/XMLSchema-instance" xsi:noNamespaceSchemaLocation="http://sumo.dlr.de/xsd/nodes_file.xsd">
    <node id="3way_1" x="100.00" y="0.00" type="traffic_light" tlLayout="opposites"/>
    <node id="3way_11" x="500.00" y="-100.00" type="traffic_light" tlLayout="opposites"/>
    <node id="3way_12" x="0.00" y="-200.00" type="traffic_light" tlLayout="opposites"/>
    <node id="3way_17" x="500.00" y="-200.00" type="traffic_light" tlLayout="opposites"/>
    <node id="3way_18" x="0.00" y="-300.00" type="traffic_light" tlLayout="opposites"/>
    <node id="3way_2" x="200.00" y="0.00" type="traffic_light" tlLayout="opposites"/>
    <node id="3way_23" x="500.00" y="-300.00" type="traffic_light" tlLayout="opposites"/>
    <node id="3way_24" x="0.00" y="-400.00" type="traffic_light" tlLayout="opposites"/>
    <node id="3way_29" x="500.00" y="-400.00" type="traffic_light" tlLayout="opposites"/>
    <node id="3way_3" x="300.00" y="0.00" type="traffic_light" tlLayout="opposites"/>
    <node id="3way_31" x="100.00" y="-500.00" type="traffic_light" tlLayout="opposites"/>
    <node id="3way_32" x="200.00" y="-500.00" type="traffic_light" tlLayout="opposites"/>
    <node id="3way_33" x="300.00" y="-500.00" type="traffic_light" tlLayout="opposites"/>
    <node id="3way_34" x="400.00" y="-500.00" type="traffic_light" tlLayout="opposites"/>
    <node id="3way_4" x="400.00" y="0.00" type="traffic_light" tlLayout="opposites"/>
    <node id="3way_6" x="0.00" y="-100.00" type="traffic_light" tlLayout="opposites"/>
    <node id="4way_10" x="400.00" y="-100.00" type="traffic_light" tlLayout="opposites"/>
    <node id="4way_13" x="100.00" y="-200.00" type="traffic_light" tlLayout="opposites"/>
    <node id="4way_14" x="200.00" y="-200.00" type="traffic_light" tlLayout="opposites"/>
    <node id="4way_15" x="300.00" y="-200.00" type="traffic_light" tlLayout="opposites"/>
    <node id="4way_16" x="400.00" y="-200.00" type="traffic_light" tlLayout="opposites"/>
    <node id="4way_19" x="100.00" y="-300.00" type="traffic_light" tlLayout="opposites"/>
    <node id="4way_20" x="200.00" y="-300.00" type="traffic_light" tlLayout="opposites"/>
    <node id="4way_21" x="300.00" y="-300.00" type="traffic_light" tlLayout="opposites"/>
    <node id="4way_22" x="400.00" y="-300.00" type="traffic_light" tlLayout="opposites"/>
    <node id="4way_25" x="100.00" y="-400.00" type="traffic_light" tlLayout="opposites"/>
    <node id="4way_26" x="200.00" y="-400.00" type="traffic_light" tlLayout="opposites"/>
    <node id="4way_27" x="300.00" y="-400.00" type="traffic_light" tlLayout="opposites"/>
    <node id="4way_28" x="400.00" y="-400.00" type="traffic_light" tlLayout="opposites"/>
    <node id="4way_7" x="100.00" y="-100.00" type="traffic_light" tlLayout="opposites"/>
    <node id="4way_8" x="200.00" y="-100.00" type="traffic_light" tlLayout="opposites"/>
    <node id="4way_9" x="300.00" y="-100.00" type="traffic_light" tlLayout="opposites"/>
</nodes>
