<routes xmlns:xsi="http://www.w3.org/2001/XMLSchema-instance" xsi:noNamespaceSchemaLocation="http://sumo.dlr.de/xsd/routes_file.xsd">
<trip id="0" depart="0.0" fromJunction="4way_24" toJunction="4way_36"/>
<trip id="1" depart="0.1785" fromJunction="4way_36" toJunction="4way_23"/>
<trip id="2" depart="0.357" fromJunction="4way_37" toJunction="3way_7"/>
<trip id="3" depart="0.5355" fromJunction="4way_12" toJunction="3way_7"/>
<trip id="4" depart="0.714" fromJunction="3way_21" toJunction="4way_33"/>
<trip id="5" depart="0.8925" fromJunction="4way_29" toJunction="4way_11"/>
<trip id="6" depart="1.071" fromJunction="4way_19" toJunction="4way_9"/>
<trip id="7" depart="1.2494999999999998" fromJunction="4way_25" toJunction="3way_1"/>
<trip id="8" depart="1.428" fromJunction="4way_39" toJunction="4way_11"/>
<trip id="9" depart="1.6065" fromJunction="4way_11" toJunction="4way_40"/>
<trip id="10" depart="1.785" fromJunction="4way_11" toJunction="4way_8"/>
<trip id="11" depart="1.9634999999999998" fromJunction="4way_30" toJunction="3way_13"/>
<trip id="12" depart="2.142" fromJunction="4way_26" toJunction="3way_20"/>
<trip id="13" depart="2.3205" fromJunction="3way_14" toJunction="4way_29"/>
<trip id="14" depart="2.4989999999999997" fromJunction="4way_38" toJunction="3way_46"/>
<trip id="15" depart="2.6774999999999998" fromJunction="4way_9" toJunction="4way_8"/>
<trip id="16" depart="2.856" fromJunction="4way_23" toJunction="3way_1"/>
<trip id="17" depart="3.0345" fromJunction="4way_10" toJunction="4way_26"/>
<trip id="18" depart="3.213" fromJunction="3way_7" toJunction="3way_28"/>
<trip id="19" depart="3.3914999999999997" fromJunction="3way_3" toJunction="4way_17"/>
<trip id="20" depart="3.57" fromJunction="3way_13" toJunction="3way_41"/>
<trip id="21" depart="3.7485" fromJunction="3way_28" toJunction="3way_43"/>
<trip id="22" depart="3.9269999999999996" fromJunction="3way_7" toJunction="4way_9"/>
<trip id="23" depart="4.1055" fromJunction="3way_5" toJunction="4way_40"/>
<trip id="24" depart="4.284" fromJunction="3way_27" toJunction="3way_41"/>
<trip id="25" depart="4.4624999999999995" fromJunction="3way_46" toJunction="4way_37"/>
<trip id="26" depart="4.641" fromJunction="3way_47" toJunction="4way_8"/>
<trip id="27" depart="4.8195" fromJunction="3way_5" toJunction="3way_27"/>
<trip id="28" depart="4.997999999999999" fromJunction="3way_20" toJunction="4way_37"/>
<trip id="29" depart="5.1765" fromJunction="3way_28" toJunction="3way_34"/>
<trip id="30" depart="5.3549999999999995" fromJunction="3way_5" toJunction="4way_18"/>
<trip id="31" depart="5.5335" fromJunction="3way_5" toJunction="4way_25"/>
<trip id="32" depart="5.712" fromJunction="4way_15" toJunction="4way_33"/>
<trip id="33" depart="5.890499999999999" fromJunction="4way_23" toJunction="4way_33"/>
<trip id="34" depart="6.069" fromJunction="3way_2" toJunction="4way_31"/>
<trip id="35" depart="6.2475" fromJunction="3way_13" toJunction="3way_45"/>
<trip id="36" depart="6.426" fromJunction="3way_13" toJunction="3way_44"/>
<trip id="37" depart="6.6045" fromJunction="3way_14" toJunction="3way_43"/>
<trip id="38" depart="6.7829999999999995" fromJunction="4way_17" toJunction="3way_3"/>
<trip id="39" depart="6.9615" fromJunction="3way_46" toJunction="4way_9"/>
<trip id="40" depart="7.14" fromJunction="3way_5" toJunction="4way_29"/>
<trip id="41" depart="7.318499999999999" fromJunction="4way_19" toJunction="4way_9"/>
<trip id="42" depart="7.497" fromJunction="4way_10" toJunction="3way_43"/>
<trip id="43" depart="7.6754999999999995" fromJunction="4way_24" toJunction="3way_13"/>
<trip id="44" depart="7.853999999999999" fromJunction="3way_34" toJunction="3way_44"/>
<trip id="45" depart="8.032499999999999" fromJunction="3way_1" toJunction="4way_16"/>
<trip id="46" depart="8.211" fromJunction="3way_1" toJunction="4way_25"/>
<trip id="47" depart="8.3895" fromJunction="3way_45" toJunction="4way_10"/>
<trip id="48" depart="8.568" fromJunction="4way_33" toJunction="4way_31"/>
<trip id="49" depart="8.7465" fromJunction="4way_9" toJunction="3way_46"/>
<trip id="50" depart="8.924999999999999" fromJunction="4way_9" toJunction="4way_16"/>
<trip id="51" depart="9.1035" fromJunction="4way_26" toJunction="3way_47"/>
<trip id="52" depart="9.282" fromJunction="4way_32" toJunction="4way_8"/>
<trip id="53" depart="9.4605" fromJunction="3way_44" toJunction="4way_17"/>
<trip id="54" depart="9.639" fromJunction="3way_21" toJunction="4way_18"/>
<trip id="55" depart="9.817499999999999" fromJunction="4way_16" toJunction="4way_39"/>
<trip id="56" depart="9.995999999999999" fromJunction="4way_17" toJunction="4way_39"/>
<trip id="57" depart="10.1745" fromJunction="4way_22" toJunction="4way_24"/>
<trip id="58" depart="10.353" fromJunction="4way_30" toJunction="4way_33"/>
<trip id="59" depart="10.5315" fromJunction="4way_23" toJunction="3way_7"/>
<trip id="60" depart="10.709999999999999" fromJunction="3way_44" toJunction="3way_1"/>
<trip id="61" depart="10.888499999999999" fromJunction="3way_44" toJunction="4way_37"/>
<trip id="62" depart="11.067" fromJunction="3way_7" toJunction="4way_23"/>
<trip id="63" depart="11.2455" fromJunction="3way_44" toJunction="3way_20"/>
<trip id="64" depart="11.424" fromJunction="4way_16" toJunction="4way_9"/>
<trip id="65" depart="11.6025" fromJunction="4way_37" toJunction="4way_9"/>
<trip id="66" depart="11.780999999999999" fromJunction="3way_7" toJunction="4way_37"/>
<trip id="67" depart="11.9595" fromJunction="3way_28" toJunction="4way_12"/>
<trip id="68" depart="12.138" fromJunction="4way_12" toJunction="3way_7"/>
<trip id="69" depart="12.3165" fromJunction="4way_17" toJunction="4way_18"/>
<trip id="70" depart="12.495" fromJunction="4way_19" toJunction="3way_5"/>
<trip id="71" depart="12.673499999999999" fromJunction="4way_40" toJunction="4way_24"/>
<trip id="72" depart="12.852" fromJunction="4way_39" toJunction="3way_20"/>
<trip id="73" depart="13.0305" fromJunction="4way_23" toJunction="3way_27"/>
<trip id="74" depart="13.209" fromJunction="4way_32" toJunction="3way_13"/>
<trip id="75" depart="13.3875" fromJunction="4way_9" toJunction="4way_18"/>
<trip id="76" depart="13.565999999999999" fromJunction="3way_4" toJunction="3way_14"/>
<trip id="77" depart="13.744499999999999" fromJunction="4way_8" toJunction="4way_17"/>
<trip id="78" depart="13.923" fromJunction="4way_32" toJunction="4way_24"/>
<trip id="79" depart="14.1015" fromJunction="4way_32" toJunction="4way_33"/>
<trip id="80" depart="14.28" fromJunction="3way_28" toJunction="3way_1"/>
<trip id="81" depart="14.458499999999999" fromJunction="3way_27" toJunction="4way_24"/>
<trip id="82" depart="14.636999999999999" fromJunction="3way_3" toJunction="4way_29"/>
<trip id="83" depart="14.8155" fromJunction="3way_1" toJunction="3way_34"/>
<trip id="84" depart="14.994" fromJunction="3way_47" toJunction="4way_11"/>
<trip id="85" depart="15.1725" fromJunction="4way_19" toJunction="3way_35"/>
<trip id="86" depart="15.350999999999999" fromJunction="3way_2" toJunction="4way_17"/>
<trip id="87" depart="15.529499999999999" fromJunction="4way_23" toJunction="3way_27"/>
<trip id="88" depart="15.707999999999998" fromJunction="3way_47" toJunction="4way_9"/>
<trip id="89" depart="15.8865" fromJunction="4way_23" toJunction="4way_26"/>
<trip id="90" depart="16.064999999999998" fromJunction="4way_16" toJunction="4way_36"/>
<trip id="91" depart="16.2435" fromJunction="3way_43" toJunction="4way_24"/>
<trip id="92" depart="16.422" fromJunction="3way_41" toJunction="3way_21"/>
<trip id="93" depart="16.6005" fromJunction="4way_26" toJunction="3way_34"/>
<trip id="94" depart="16.779" fromJunction="4way_22" toJunction="4way_31"/>
<trip id="95" depart="16.9575" fromJunction="3way_46" toJunction="3way_47"/>
<trip id="96" depart="17.136" fromJunction="3way_7" toJunction="3way_3"/>
<trip id="97" depart="17.3145" fromJunction="4way_17" toJunction="3way_43"/>
<trip id="98" depart="17.493" fromJunction="3way_34" toJunction="3way_28"/>
<trip id="99" depart="17.671499999999998" fromJunction="3way_4" toJunction="3way_2"/>
<trip id="100" depart="17.849999999999998" fromJunction="4way_8" toJunction="4way_10"/>
<trip id="101" depart="18.028499999999998" fromJunction="4way_12" toJunction="4way_36"/>
<trip id="102" depart="18.207" fromJunction="3way_41" toJunction="4way_40"/>
<trip id="103" depart="18.3855" fromJunction="3way_46" toJunction="4way_37"/>
<trip id="104" depart="18.564" fromJunction="4way_38" toJunction="3way_1"/>
<trip id="105" depart="18.7425" fromJunction="3way_21" toJunction="3way_43"/>
<trip id="106" depart="18.921" fromJunction="4way_25" toJunction="4way_16"/>
<trip id="107" depart="19.0995" fromJunction="4way_39" toJunction="4way_30"/>
<trip id="108" depart="19.278" fromJunction="4way_11" toJunction="3way_45"/>
<trip id="109" depart="19.4565" fromJunction="4way_26" toJunction="3way_34"/>
<trip id="110" depart="19.634999999999998" fromJunction="3way_41" toJunction="4way_10"/>
<trip id="111" depart="19.813499999999998" fromJunction="4way_24" toJunction="4way_26"/>
<trip id="112" depart="19.991999999999997" fromJunction="3way_41" toJunction="3way_46"/>
<trip id="113" depart="20.1705" fromJunction="3way_2" toJunction="4way_29"/>
<trip id="114" depart="20.349" fromJunction="3way_7" toJunction="3way_41"/>
<trip id="115" depart="20.5275" fromJunction="4way_8" toJunction="3way_28"/>
<trip id="116" depart="20.706" fromJunction="4way_16" toJunction="3way_45"/>
<trip id="117" depart="20.8845" fromJunction="3way_13" toJunction="4way_32"/>
<trip id="118" depart="21.063" fromJunction="3way_13" toJunction="4way_29"/>
<trip id="119" depart="21.2415" fromJunction="3way_21" toJunction="4way_24"/>
<trip id="120" depart="21.419999999999998" fromJunction="3way_34" toJunction="4way_9"/>
<trip id="121" depart="21.598499999999998" fromJunction="4way_15" toJunction="3way_20"/>
<trip id="122" depart="21.776999999999997" fromJunction="4way_26" toJunction="3way_28"/>
<trip id="123" depart="21.9555" fromJunction="4way_31" toJunction="4way_38"/>
<trip id="124" depart="22.134" fromJunction="3way_4" toJunction="4way_12"/>
<trip id="125" depart="22.3125" fromJunction="4way_16" toJunction="4way_36"/>
<trip id="126" depart="22.491" fromJunction="3way_44" toJunction="4way_33"/>
<trip id="127" depart="22.6695" fromJunction="3way_5" toJunction="3way_47"/>
<trip id="128" depart="22.848" fromJunction="4way_19" toJunction="3way_1"/>
<trip id="129" depart="23.0265" fromJunction="4way_11" toJunction="4way_10"/>
<trip id="130" depart="23.205" fromJunction="4way_16" toJunction="3way_45"/>
<trip id="131" depart="23.383499999999998" fromJunction="4way_15" toJunction="3way_3"/>
<trip id="132" depart="23.561999999999998" fromJunction="4way_39" toJunction="4way_33"/>
<trip id="133" depart="23.740499999999997" fromJunction="4way_33" toJunction="3way_35"/>
<trip id="134" depart="23.919" fromJunction="4way_26" toJunction="3way_47"/>
<trip id="135" depart="24.0975" fromJunction="4way_11" toJunction="4way_26"/>
<trip id="136" depart="24.276" fromJunction="4way_39" toJunction="4way_30"/>
<trip id="137" depart="24.4545" fromJunction="4way_32" toJunction="3way_44"/>
<trip id="138" depart="24.633" fromJunction="3way_1" toJunction="4way_23"/>
<trip id="139" depart="24.8115" fromJunction="3way_20" toJunction="3way_35"/>
<trip id="140" depart="24.99" fromJunction="4way_15" toJunction="4way_40"/>
<trip id="141" depart="25.168499999999998" fromJunction="4way_30" toJunction="4way_22"/>
<trip id="142" depart="25.346999999999998" fromJunction="3way_20" toJunction="3way_28"/>
<trip id="143" depart="25.525499999999997" fromJunction="3way_34" toJunction="4way_18"/>
<trip id="144" depart="25.704" fromJunction="3way_47" toJunction="4way_29"/>
<trip id="145" depart="25.8825" fromJunction="4way_32" toJunction="3way_5"/>
<trip id="146" depart="26.061" fromJunction="4way_38" toJunction="4way_12"/>
<trip id="147" depart="26.2395" fromJunction="3way_4" toJunction="3way_43"/>
<trip id="148" depart="26.418" fromJunction="3way_47" toJunction="3way_14"/>
<trip id="149" depart="26.5965" fromJunction="3way_3" toJunction="3way_13"/>
<trip id="150" depart="26.775" fromJunction="3way_1" toJunction="4way_24"/>
<trip id="151" depart="26.9535" fromJunction="3way_20" toJunction="4way_38"/>
<trip id="152" depart="27.131999999999998" fromJunction="3way_5" toJunction="3way_4"/>
<trip id="153" depart="27.310499999999998" fromJunction="3way_46" toJunction="4way_10"/>
<trip id="154" depart="27.488999999999997" fromJunction="4way_9" toJunction="3way_14"/>
<trip id="155" depart="27.6675" fromJunction="4way_24" toJunction="4way_32"/>
<trip id="156" depart="27.846" fromJunction="3way_13" toJunction="3way_45"/>
<trip id="157" depart="28.0245" fromJunction="3way_44" toJunction="3way_3"/>
<trip id="158" depart="28.203" fromJunction="4way_8" toJunction="3way_46"/>
<trip id="159" depart="28.3815" fromJunction="4way_17" toJunction="4way_10"/>
<trip id="160" depart="28.56" fromJunction="3way_21" toJunction="3way_45"/>
<trip id="161" depart="28.7385" fromJunction="4way_11" toJunction="3way_34"/>
<trip id="162" depart="28.916999999999998" fromJunction="4way_17" toJunction="3way_3"/>
<trip id="163" depart="29.095499999999998" fromJunction="4way_38" toJunction="4way_11"/>
<trip id="164" depart="29.273999999999997" fromJunction="3way_28" toJunction="3way_46"/>
<trip id="165" depart="29.452499999999997" fromJunction="3way_45" toJunction="4way_16"/>
<trip id="166" depart="29.631" fromJunction="3way_34" toJunction="3way_28"/>
<trip id="167" depart="29.8095" fromJunction="3way_3" toJunction="4way_8"/>
<trip id="168" depart="29.988" fromJunction="3way_4" toJunction="4way_11"/>
<trip id="169" depart="30.1665" fromJunction="3way_44" toJunction="4way_29"/>
<trip id="170" depart="30.345" fromJunction="4way_33" toJunction="4way_9"/>
<trip id="171" depart="30.5235" fromJunction="3way_2" toJunction="4way_37"/>
<trip id="172" depart="30.701999999999998" fromJunction="4way_22" toJunction="3way_7"/>
<trip id="173" depart="30.880499999999998" fromJunction="4way_10" toJunction="4way_36"/>
<trip id="174" depart="31.058999999999997" fromJunction="3way_13" toJunction="3way_45"/>
<trip id="175" depart="31.237499999999997" fromJunction="4way_33" toJunction="3way_21"/>
<trip id="176" depart="31.415999999999997" fromJunction="4way_12" toJunction="3way_34"/>
<trip id="177" depart="31.5945" fromJunction="4way_8" toJunction="4way_36"/>
<trip id="178" depart="31.773" fromJunction="4way_8" toJunction="4way_39"/>
<trip id="179" depart="31.9515" fromJunction="3way_21" toJunction="4way_24"/>
<trip id="180" depart="32.129999999999995" fromJunction="4way_17" toJunction="4way_12"/>
<trip id="181" depart="32.308499999999995" fromJunction="3way_43" toJunction="4way_17"/>
<trip id="182" depart="32.487" fromJunction="4way_30" toJunction="4way_38"/>
<trip id="183" depart="32.6655" fromJunction="3way_27" toJunction="3way_47"/>
<trip id="184" depart="32.844" fromJunction="4way_33" toJunction="4way_11"/>
<trip id="185" depart="33.0225" fromJunction="4way_16" toJunction="4way_8"/>
<trip id="186" depart="33.201" fromJunction="4way_8" toJunction="4way_32"/>
<trip id="187" depart="33.3795" fromJunction="4way_9" toJunction="4way_26"/>
<trip id="188" depart="33.558" fromJunction="4way_12" toJunction="4way_18"/>
<trip id="189" depart="33.7365" fromJunction="3way_27" toJunction="4way_18"/>
<trip id="190" depart="33.915" fromJunction="3way_21" toJunction="4way_30"/>
<trip id="191" depart="34.0935" fromJunction="3way_7" toJunction="3way_3"/>
<trip id="192" depart="34.272" fromJunction="4way_32" toJunction="3way_46"/>
<trip id="193" depart="34.4505" fromJunction="4way_33" toJunction="3way_2"/>
<trip id="194" depart="34.629" fromJunction="3way_28" toJunction="3way_35"/>
<trip id="195" depart="34.8075" fromJunction="3way_34" toJunction="3way_1"/>
<trip id="196" depart="34.986" fromJunction="4way_19" toJunction="3way_14"/>
<trip id="197" depart="35.1645" fromJunction="4way_26" toJunction="3way_5"/>
<trip id="198" depart="35.342999999999996" fromJunction="4way_8" toJunction="4way_39"/>
<trip id="199" depart="35.521499999999996" fromJunction="3way_47" toJunction="3way_43"/>
<trip id="200" depart="35.699999999999996" fromJunction="3way_2" toJunction="4way_23"/>
<trip id="201" depart="35.878499999999995" fromJunction="3way_7" toJunction="3way_1"/>
<trip id="202" depart="36.056999999999995" fromJunction="3way_46" toJunction="3way_4"/>
<trip id="203" depart="36.2355" fromJunction="3way_46" toJunction="3way_41"/>
<trip id="204" depart="36.414" fromJunction="3way_1" toJunction="3way_13"/>
<trip id="205" depart="36.5925" fromJunction="4way_23" toJunction="3way_13"/>
<trip id="206" depart="36.771" fromJunction="4way_40" toJunction="4way_33"/>
<trip id="207" depart="36.9495" fromJunction="3way_27" toJunction="3way_14"/>
<trip id="208" depart="37.128" fromJunction="4way_22" toJunction="4way_30"/>
<trip id="209" depart="37.3065" fromJunction="3way_3" toJunction="4way_40"/>
<trip id="210" depart="37.485" fromJunction="3way_45" toJunction="4way_11"/>
<trip id="211" depart="37.6635" fromJunction="4way_37" toJunction="3way_47"/>
<trip id="212" depart="37.842" fromJunction="4way_37" toJunction="3way_46"/>
<trip id="213" depart="38.0205" fromJunction="3way_7" toJunction="4way_29"/>
<trip id="214" depart="38.199" fromJunction="3way_45" toJunction="4way_36"/>
<trip id="215" depart="38.3775" fromJunction="3way_14" toJunction="4way_17"/>
<trip id="216" depart="38.556" fromJunction="4way_25" toJunction="3way_28"/>
<trip id="217" depart="38.7345" fromJunction="3way_3" toJunction="4way_19"/>
<trip id="218" depart="38.913" fromJunction="3way_35" toJunction="3way_47"/>
<trip id="219" depart="39.091499999999996" fromJunction="4way_40" toJunction="4way_18"/>
<trip id="220" depart="39.269999999999996" fromJunction="4way_12" toJunction="4way_33"/>
<trip id="221" depart="39.448499999999996" fromJunction="4way_40" toJunction="3way_44"/>
<trip id="222" depart="39.626999999999995" fromJunction="3way_5" toJunction="3way_46"/>
<trip id="223" depart="39.805499999999995" fromJunction="3way_47" toJunction="4way_26"/>
<trip id="224" depart="39.983999999999995" fromJunction="3way_3" toJunction="4way_17"/>
<trip id="225" depart="40.1625" fromJunction="4way_39" toJunction="4way_24"/>
<trip id="226" depart="40.341" fromJunction="3way_21" toJunction="3way_45"/>
<trip id="227" depart="40.5195" fromJunction="4way_31" toJunction="3way_28"/>
<trip id="228" depart="40.698" fromJunction="3way_27" toJunction="3way_47"/>
<trip id="229" depart="40.8765" fromJunction="3way_44" toJunction="4way_8"/>
<trip id="230" depart="41.055" fromJunction="3way_47" toJunction="4way_25"/>
<trip id="231" depart="41.2335" fromJunction="4way_26" toJunction="4way_22"/>
<trip id="232" depart="41.412" fromJunction="4way_39" toJunction="4way_30"/>
<trip id="233" depart="41.5905" fromJunction="4way_31" toJunction="4way_26"/>
<trip id="234" depart="41.769" fromJunction="4way_33" toJunction="4way_17"/>
<trip id="235" depart="41.9475" fromJunction="4way_8" toJunction="4way_40"/>
<trip id="236" depart="42.126" fromJunction="3way_44" toJunction="3way_4"/>
<trip id="237" depart="42.3045" fromJunction="3way_14" toJunction="3way_20"/>
<trip id="238" depart="42.483" fromJunction="4way_23" toJunction="3way_13"/>
<trip id="239" depart="42.6615" fromJunction="4way_12" toJunction="3way_21"/>
<trip id="240" depart="42.839999999999996" fromJunction="4way_36" toJunction="4way_33"/>
<trip id="241" depart="43.018499999999996" fromJunction="4way_16" toJunction="3way_45"/>
<trip id="242" depart="43.196999999999996" fromJunction="3way_14" toJunction="4way_12"/>
<trip id="243" depart="43.375499999999995" fromJunction="3way_45" toJunction="4way_36"/>
<trip id="244" depart="43.553999999999995" fromJunction="3way_14" toJunction="4way_8"/>
<trip id="245" depart="43.732499999999995" fromJunction="4way_22" toJunction="3way_46"/>
<trip id="246" depart="43.911" fromJunction="3way_28" toJunction="3way_44"/>
<trip id="247" depart="44.0895" fromJunction="4way_31" toJunction="4way_29"/>
<trip id="248" depart="44.268" fromJunction="4way_19" toJunction="3way_35"/>
<trip id="249" depart="44.4465" fromJunction="3way_3" toJunction="4way_32"/>
<trip id="250" depart="44.625" fromJunction="4way_8" toJunction="3way_46"/>
<trip id="251" depart="44.8035" fromJunction="3way_35" toJunction="3way_5"/>
<trip id="252" depart="44.982" fromJunction="4way_10" toJunction="4way_31"/>
<trip id="253" depart="45.1605" fromJunction="4way_17" toJunction="4way_30"/>
<trip id="254" depart="45.339" fromJunction="3way_35" toJunction="3way_41"/>
<trip id="255" depart="45.5175" fromJunction="4way_39" toJunction="4way_10"/>
<trip id="256" depart="45.696" fromJunction="3way_45" toJunction="4way_36"/>
<trip id="257" depart="45.8745" fromJunction="4way_17" toJunction="3way_2"/>
<trip id="258" depart="46.053" fromJunction="3way_28" toJunction="3way_1"/>
<trip id="259" depart="46.2315" fromJunction="4way_19" toJunction="4way_29"/>
<trip id="260" depart="46.41" fromJunction="3way_14" toJunction="3way_5"/>
<trip id="261" depart="46.588499999999996" fromJunction="3way_35" toJunction="3way_2"/>
<trip id="262" depart="46.766999999999996" fromJunction="3way_45" toJunction="4way_30"/>
<trip id="263" depart="46.945499999999996" fromJunction="3way_13" toJunction="3way_41"/>
<trip id="264" depart="47.123999999999995" fromJunction="4way_17" toJunction="4way_9"/>
<trip id="265" depart="47.302499999999995" fromJunction="4way_26" toJunction="4way_10"/>
<trip id="266" depart="47.480999999999995" fromJunction="4way_37" toJunction="3way_1"/>
<trip id="267" depart="47.6595" fromJunction="4way_16" toJunction="4way_23"/>
<trip id="268" depart="47.838" fromJunction="3way_1" toJunction="4way_33"/>
<trip id="269" depart="48.0165" fromJunction="4way_18" toJunction="4way_17"/>
<trip id="270" depart="48.195" fromJunction="3way_35" toJunction="4way_22"/>
<trip id="271" depart="48.3735" fromJunction="3way_5" toJunction="4way_11"/>
<trip id="272" depart="48.552" fromJunction="4way_29" toJunction="3way_7"/>
<trip id="273" depart="48.7305" fromJunction="3way_5" toJunction="4way_17"/>
<trip id="274" depart="48.909" fromJunction="3way_14" toJunction="3way_47"/>
<trip id="275" depart="49.0875" fromJunction="4way_39" toJunction="4way_30"/>
<trip id="276" depart="49.266" fromJunction="3way_20" toJunction="4way_23"/>
<trip id="277" depart="49.4445" fromJunction="4way_39" toJunction="4way_40"/>
<trip id="278" depart="49.623" fromJunction="4way_19" toJunction="4way_22"/>
<trip id="279" depart="49.8015" fromJunction="4way_19" toJunction="4way_36"/>
<trip id="280" depart="49.98" fromJunction="4way_33" toJunction="4way_25"/>
<trip id="281" depart="50.1585" fromJunction="3way_2" toJunction="4way_19"/>
<trip id="282" depart="50.336999999999996" fromJunction="3way_21" toJunction="3way_27"/>
<trip id="283" depart="50.515499999999996" fromJunction="3way_44" toJunction="4way_26"/>
<trip id="284" depart="50.693999999999996" fromJunction="4way_39" toJunction="3way_27"/>
<trip id="285" depart="50.872499999999995" fromJunction="4way_12" toJunction="4way_8"/>
<trip id="286" depart="51.050999999999995" fromJunction="4way_37" toJunction="3way_27"/>
<trip id="287" depart="51.229499999999994" fromJunction="3way_4" toJunction="3way_7"/>
<trip id="288" depart="51.408" fromJunction="3way_46" toJunction="4way_17"/>
<trip id="289" depart="51.5865" fromJunction="3way_3" toJunction="3way_2"/>
<trip id="290" depart="51.765" fromJunction="4way_12" toJunction="3way_3"/>
<trip id="291" depart="51.9435" fromJunction="4way_12" toJunction="4way_31"/>
<trip id="292" depart="52.122" fromJunction="4way_29" toJunction="4way_10"/>
<trip id="293" depart="52.3005" fromJunction="4way_40" toJunction="3way_44"/>
<trip id="294" depart="52.479" fromJunction="4way_15" toJunction="3way_28"/>
<trip id="295" depart="52.6575" fromJunction="4way_40" toJunction="3way_21"/>
<trip id="296" depart="52.836" fromJunction="3way_43" toJunction="3way_27"/>
<trip id="297" depart="53.0145" fromJunction="3way_3" toJunction="4way_10"/>
<trip id="298" depart="53.193" fromJunction="4way_15" toJunction="4way_23"/>
<trip id="299" depart="53.3715" fromJunction="3way_47" toJunction="3way_45"/>
<trip id="300" depart="53.55" fromJunction="3way_28" toJunction="4way_29"/>
<trip id="301" depart="53.7285" fromJunction="3way_35" toJunction="4way_8"/>
<trip id="302" depart="53.907" fromJunction="3way_20" toJunction="4way_33"/>
<trip id="303" depart="54.085499999999996" fromJunction="3way_35" toJunction="3way_5"/>
<trip id="304" depart="54.263999999999996" fromJunction="4way_37" toJunction="4way_16"/>
<trip id="305" depart="54.442499999999995" fromJunction="4way_40" toJunction="3way_21"/>
<trip id="306" depart="54.620999999999995" fromJunction="4way_24" toJunction="3way_35"/>
<trip id="307" depart="54.799499999999995" fromJunction="4way_18" toJunction="4way_30"/>
<trip id="308" depart="54.977999999999994" fromJunction="4way_12" toJunction="4way_33"/>
<trip id="309" depart="55.156499999999994" fromJunction="4way_17" toJunction="4way_38"/>
<trip id="310" depart="55.335" fromJunction="3way_20" toJunction="3way_35"/>
<trip id="311" depart="55.5135" fromJunction="3way_47" toJunction="3way_3"/>
<trip id="312" depart="55.692" fromJunction="4way_29" toJunction="3way_7"/>
<trip id="313" depart="55.8705" fromJunction="4way_33" toJunction="4way_38"/>
<trip id="314" depart="56.049" fromJunction="3way_5" toJunction="3way_13"/>
<trip id="315" depart="56.2275" fromJunction="4way_31" toJunction="4way_16"/>
<trip id="316" depart="56.406" fromJunction="4way_26" toJunction="4way_32"/>
<trip id="317" depart="56.5845" fromJunction="3way_21" toJunction="4way_40"/>
<trip id="318" depart="56.763" fromJunction="3way_20" toJunction="3way_21"/>
<trip id="319" depart="56.9415" fromJunction="4way_37" toJunction="4way_10"/>
<trip id="320" depart="57.12" fromJunction="3way_5" toJunction="4way_32"/>
<trip id="321" depart="57.2985" fromJunction="4way_16" toJunction="4way_22"/>
<trip id="322" depart="57.477" fromJunction="3way_27" toJunction="3way_47"/>
<trip id="323" depart="57.655499999999996" fromJunction="3way_3" toJunction="4way_32"/>
<trip id="324" depart="57.833999999999996" fromJunction="3way_13" toJunction="4way_15"/>
<trip id="325" depart="58.012499999999996" fromJunction="4way_40" toJunction="4way_8"/>
<trip id="326" depart="58.190999999999995" fromJunction="4way_32" toJunction="3way_7"/>
<trip id="327" depart="58.369499999999995" fromJunction="3way_45" toJunction="3way_13"/>
<trip id="328" depart="58.547999999999995" fromJunction="3way_21" toJunction="3way_14"/>
<trip id="329" depart="58.726499999999994" fromJunction="3way_35" toJunction="4way_10"/>
<trip id="330" depart="58.904999999999994" fromJunction="4way_30" toJunction="4way_24"/>
<trip id="331" depart="59.0835" fromJunction="3way_7" toJunction="3way_21"/>
<trip id="332" depart="59.262" fromJunction="3way_4" toJunction="4way_23"/>
<trip id="333" depart="59.4405" fromJunction="4way_37" toJunction="4way_25"/>
<trip id="334" depart="59.619" fromJunction="4way_36" toJunction="4way_24"/>
<trip id="335" depart="59.7975" fromJunction="3way_14" toJunction="3way_5"/>
<trip id="336" depart="59.976" fromJunction="3way_43" toJunction="3way_14"/>
<trip id="337" depart="60.1545" fromJunction="4way_31" toJunction="3way_2"/>
<trip id="338" depart="60.333" fromJunction="4way_23" toJunction="3way_5"/>
<trip id="339" depart="60.5115" fromJunction="4way_30" toJunction="4way_17"/>
<trip id="340" depart="60.69" fromJunction="3way_5" toJunction="4way_33"/>
<trip id="341" depart="60.8685" fromJunction="3way_2" toJunction="4way_39"/>
<trip id="342" depart="61.047" fromJunction="3way_14" toJunction="4way_36"/>
<trip id="343" depart="61.2255" fromJunction="3way_28" toJunction="4way_29"/>
<trip id="344" depart="61.403999999999996" fromJunction="3way_1" toJunction="3way_34"/>
<trip id="345" depart="61.582499999999996" fromJunction="4way_25" toJunction="4way_29"/>
<trip id="346" depart="61.760999999999996" fromJunction="3way_47" toJunction="3way_28"/>
<trip id="347" depart="61.939499999999995" fromJunction="3way_5" toJunction="3way_41"/>
<trip id="348" depart="62.117999999999995" fromJunction="3way_3" toJunction="3way_46"/>
<trip id="349" depart="62.296499999999995" fromJunction="4way_32" toJunction="3way_3"/>
<trip id="350" depart="62.474999999999994" fromJunction="4way_9" toJunction="3way_27"/>
<trip id="351" depart="62.653499999999994" fromJunction="4way_8" toJunction="4way_38"/>
<trip id="352" depart="62.831999999999994" fromJunction="3way_34" toJunction="3way_20"/>
<trip id="353" depart="63.0105" fromJunction="4way_29" toJunction="3way_7"/>
<trip id="354" depart="63.189" fromJunction="4way_11" toJunction="3way_35"/>
<trip id="355" depart="63.3675" fromJunction="4way_19" toJunction="4way_31"/>
<trip id="356" depart="63.546" fromJunction="4way_12" toJunction="3way_2"/>
<trip id="357" depart="63.7245" fromJunction="4way_39" toJunction="3way_21"/>
<trip id="358" depart="63.903" fromJunction="4way_40" toJunction="4way_17"/>
<trip id="359" depart="64.08149999999999" fromJunction="3way_28" toJunction="4way_38"/>
<trip id="360" depart="64.25999999999999" fromJunction="3way_28" toJunction="4way_22"/>
<trip id="361" depart="64.43849999999999" fromJunction="3way_46" toJunction="3way_28"/>
<trip id="362" depart="64.61699999999999" fromJunction="4way_10" toJunction="4way_22"/>
<trip id="363" depart="64.7955" fromJunction="4way_29" toJunction="3way_45"/>
<trip id="364" depart="64.974" fromJunction="3way_27" toJunction="3way_13"/>
<trip id="365" depart="65.1525" fromJunction="4way_33" toJunction="3way_3"/>
<trip id="366" depart="65.331" fromJunction="3way_34" toJunction="3way_1"/>
<trip id="367" depart="65.5095" fromJunction="3way_4" toJunction="4way_23"/>
<trip id="368" depart="65.688" fromJunction="4way_24" toJunction="4way_39"/>
<trip id="369" depart="65.8665" fromJunction="4way_22" toJunction="4way_33"/>
<trip id="370" depart="66.045" fromJunction="4way_36" toJunction="3way_44"/>
<trip id="371" depart="66.2235" fromJunction="4way_29" toJunction="4way_19"/>