<?xml version="1.0" encoding="UTF-8"?>

<!-- generated on 2023-07-27 06:28:20 by Eclipse SUMO duarouter Version 1.12.0
<configuration xmlns:xsi="http://www.w3.org/2001/XMLSchema-instance" xsi:noNamespaceSchemaLocation="http://sumo.dlr.de/xsd/duarouterConfiguration.xsd">

    <input>
        <net-file value="sq.net.xml"/>
        <route-files value="sq.trips.xml"/>
        <junction-taz value="true"/>
    </input>

    <output>
        <output-file value="sq.rou.xml"/>
        <alternatives-output value="sq.rou.alt.xml"/>
    </output>

    <processing>
        <weights.random-factor value="1.2"/>
    </processing>

    <time>
        <begin value="0"/>
        <end value="7200"/>
    </time>

    <report>
        <verbose value="true"/>
    </report>

    <random_number>
        <seed value="5"/>
    </random_number>

</configuration>
-->

<routes xmlns:xsi="http://www.w3.org/2001/XMLSchema-instance" xsi:noNamespaceSchemaLocation="http://sumo.dlr.de/xsd/routes_file.xsd">
    <vehicle id="0" depart="0.00">
        <route edges="352_4way_54to4way_53 350_4way_53to4way_52 348_4way_52to4way_51 349_4way_51to4way_66 374_4way_66to4way_81"/>
    </vehicle>
    <vehicle id="1" depart="1.33">
        <route edges="373_4way_66to4way_67"/>
    </vehicle>
    <vehicle id="2" depart="2.67">
        <route edges="270_4way_202to4way_187 243_4way_187to4way_172 214_4way_172to4way_157 211_4way_157to4way_156 209_4way_156to4way_155 207_4way_155to4way_154 183_4way_154to4way_139 158_4way_139to4way_124 127_4way_124to4way_109 128_4way_109to4way_94 395_4way_94to4way_79 370_4way_79to4way_64 345_4way_64to4way_49"/>
    </vehicle>
    <vehicle id="3" depart="4.00">
        <route edges="361_4way_57to4way_72 383_4way_72to4way_71 381_4way_71to4way_70 379_4way_70to4way_69 377_4way_69to4way_68 375_4way_68to4way_67 373_4way_67to4way_66 371_4way_66to4way_65 369_4way_65to4way_64 370_4way_64to4way_79 395_4way_79to4way_94"/>
    </vehicle>
    <vehicle id="4" depart="5.33">
        <route edges="123_4way_108to4way_109 126_4way_109to4way_110 129_4way_110to4way_111 132_4way_111to4way_112 135_4way_112to4way_113 138_4way_113to4way_114 141_4way_114to4way_115 144_4way_115to4way_116 146_4way_116to4way_117 148_4way_117to4way_118 115_4way_118to4way_103 116_4way_103to4way_88"/>
    </vehicle>
    <vehicle id="5" depart="6.67">
        <route edges="290_4way_200to4way_201 291_4way_201to4way_202 270_4way_202to4way_187 243_4way_187to4way_172 214_4way_172to4way_157 189_4way_157to4way_142 164_4way_142to4way_127 136_4way_127to4way_112 135_4way_112to4way_113 138_4way_113to4way_114 141_4way_114to4way_115 106_4way_115to4way_100"/>
    </vehicle>
    <vehicle id="6" depart="8.00">
        <route edges="199_4way_162to4way_147 196_4way_147to4way_146 194_4way_146to4way_145 192_4way_145to4way_144 190_4way_144to4way_143 188_4way_143to4way_142 186_4way_142to4way_141"/>
    </vehicle>
    <vehicle id="7" depart="9.33">
        <route edges="7_3way_119to3way_104 8_3way_104to3way_89 96_3way_89to3way_74 88_3way_74to3way_59"/>
    </vehicle>
    <vehicle id="8" depart="10.67">
        <route edges="334_4way_56to4way_41 309_4way_41to4way_26 14_4way_26to3way_11 4_3way_11to3way_10 5_3way_10to3way_9 100_3way_9to3way_8 94_3way_8to3way_7 90_3way_7to3way_6 86_3way_6to3way_5"/>
    </vehicle>
    <vehicle id="9" depart="12.00">
        <route edges="224_4way_176to4way_161 197_4way_161to4way_146 172_4way_146to4way_131 147_4way_131to4way_116 110_4way_116to4way_101 111_4way_101to4way_86 384_4way_86to4way_71 359_4way_71to4way_56 356_4way_56to4way_55"/>
    </vehicle>
    <vehicle id="10" depart="13.33">
        <route edges="170_4way_130to4way_145 194_4way_145to4way_146 196_4way_146to4way_147 198_4way_147to4way_148"/>
    </vehicle>
    <vehicle id="11" depart="14.67">
        <route edges="379_4way_70to4way_69 377_4way_69to4way_68 375_4way_68to4way_67 373_4way_67to4way_66 371_4way_66to4way_65 369_4way_65to4way_64 370_4way_64to4way_79 395_4way_79to4way_94 128_4way_94to4way_109 127_4way_109to4way_124 158_4way_124to4way_139 183_4way_139to4way_154 208_4way_154to4way_169"/>
    </vehicle>
    <vehicle id="12" depart="16.00">
        <route edges="269_4way_187to4way_188 271_4way_188to4way_189 273_4way_189to4way_190 277_4way_190to4way_191 279_4way_191to4way_192 281_4way_192to4way_193 283_4way_193to4way_208 73_4way_208to3way_223"/>
    </vehicle>
    <vehicle id="13" depart="17.33">
        <route edges="310_4way_28to4way_27 308_4way_27to4way_26 309_4way_26to4way_41 334_4way_41to4way_56 359_4way_56to4way_71 384_4way_71to4way_86 111_4way_86to4way_101 110_4way_101to4way_116 147_4way_116to4way_131 172_4way_131to4way_146 197_4way_146to4way_161 224_4way_161to4way_176 251_4way_176to4way_191 280_4way_191to4way_206 70_4way_206to3way_221 67_3way_221to3way_220 65_3way_220to3way_219 63_3way_219to3way_218"/>
    </vehicle>
    <vehicle id="14" depart="18.67">
        <route edges="276_4way_19to4way_34 320_4way_34to4way_49 345_4way_49to4way_64 370_4way_64to4way_79 395_4way_79to4way_94 128_4way_94to4way_109 127_4way_109to4way_124 158_4way_124to4way_139 183_4way_139to4way_154 208_4way_154to4way_169 235_4way_169to4way_184 263_4way_184to4way_185"/>
    </vehicle>
    <vehicle id="15" depart="20.00">
        <route edges="354_4way_55to4way_54 352_4way_54to4way_53 350_4way_53to4way_52 348_4way_52to4way_51 346_4way_51to4way_50 344_4way_50to4way_49 342_4way_49to4way_48 340_4way_48to4way_47 338_4way_47to4way_46 339_4way_46to4way_61 364_4way_61to4way_76 389_4way_76to4way_91 119_4way_91to4way_106"/>
    </vehicle>
    <vehicle id="16" depart="21.33">
        <route edges="184_4way_141to4way_140 182_4way_140to4way_139 183_4way_139to4way_154"/>
    </vehicle>
    <vehicle id="17" depart="22.67">
        <route edges="132_4way_112to4way_111 129_4way_111to4way_110 131_4way_110to4way_95 397_4way_95to4way_80 372_4way_80to4way_65 347_4way_65to4way_50 322_4way_50to4way_35 289_4way_35to4way_20 87_4way_20to3way_5"/>
    </vehicle>
    <vehicle id="18" depart="24.00">
        <route edges="137_4way_112to4way_97"/>
    </vehicle>
    <vehicle id="19" depart="25.33">
        <route edges="165_4way_128to4way_129 142_4way_129to4way_114 143_4way_114to4way_99 405_4way_99to4way_84 380_4way_84to4way_69 355_4way_69to4way_54 330_4way_54to4way_39 329_4way_39to4way_40 331_4way_40to4way_41 333_4way_41to4way_42 335_4way_42to4way_43 312_4way_43to4way_28"/>
    </vehicle>
    <vehicle id="20" depart="26.67">
        <route edges="395_4way_94to4way_79 370_4way_79to4way_64 345_4way_64to4way_49 320_4way_49to4way_34 317_4way_34to4way_33"/>
    </vehicle>
    <vehicle id="21" depart="28.00">
        <route edges="75_3way_29to4way_28 310_4way_28to4way_27 308_4way_27to4way_26 306_4way_26to4way_25 304_4way_25to4way_24 302_4way_24to4way_23 303_4way_23to4way_38 328_4way_38to4way_53 353_4way_53to4way_68 378_4way_68to4way_83 403_4way_83to4way_98 140_4way_98to4way_113 139_4way_113to4way_128 166_4way_128to4way_143 191_4way_143to4way_158 216_4way_158to4way_173 245_4way_173to4way_188"/>
    </vehicle>
    <vehicle id="22" depart="29.33">
        <route edges="403_4way_98to4way_83"/>
    </vehicle>
    <vehicle id="23" depart="30.67">
        <route edges="70_3way_221to4way_206 280_4way_206to4way_191 251_4way_191to4way_176 224_4way_176to4way_161 197_4way_161to4way_146 194_4way_146to4way_145 192_4way_145to4way_144 190_4way_144to4way_143 188_4way_143to4way_142 186_4way_142to4way_141 184_4way_141to4way_140 182_4way_140to4way_139 180_4way_139to4way_138 178_4way_138to4way_137 176_4way_137to4way_136 26_4way_136to3way_135 19_3way_135to3way_120 10_3way_120to3way_105 11_3way_105to3way_90"/>
    </vehicle>
    <vehicle id="24" depart="32.00">
        <route edges="340_4way_48to4way_47 341_4way_47to4way_62 366_4way_62to4way_77"/>
    </vehicle>
    <vehicle id="25" depart="33.33">
        <route edges="128_4way_94to4way_109 127_4way_109to4way_124 158_4way_124to4way_139 183_4way_139to4way_154 207_4way_154to4way_155 209_4way_155to4way_156"/>
    </vehicle>
    <vehicle id="26" depart="34.67">
        <route edges="34_3way_164to4way_163 227_4way_163to4way_178"/>
    </vehicle>
    <vehicle id="27" depart="36.00">
        <route edges="56_3way_214to4way_199 264_4way_199to4way_184 235_4way_184to4way_169 208_4way_169to4way_154 183_4way_154to4way_139 158_4way_139to4way_124 127_4way_124to4way_109 123_4way_109to4way_108 120_4way_108to4way_107 117_4way_107to4way_106 12_4way_106to3way_105 11_3way_105to3way_90"/>
    </vehicle>
    <vehicle id="28" depart="37.33">
        <route edges="363_4way_61to4way_62 365_4way_62to4way_63 367_4way_63to4way_64 369_4way_64to4way_65 371_4way_65to4way_66 373_4way_66to4way_67 375_4way_67to4way_68 353_4way_68to4way_53 328_4way_53to4way_38"/>
    </vehicle>
    <vehicle id="29" depart="38.67">
        <route edges="339_4way_46to4way_61 364_4way_61to4way_76 389_4way_76to4way_91 119_4way_91to4way_106 118_4way_106to4way_121 152_4way_121to4way_136 177_4way_136to4way_151 202_4way_151to4way_166 229_4way_166to4way_181 258_4way_181to4way_196 284_4way_196to4way_197 285_4way_197to4way_198 286_4way_198to4way_199"/>
    </vehicle>
    <vehicle id="30" depart="40.00">
        <route edges="42_3way_194to4way_193 281_4way_193to4way_192 279_4way_192to4way_191 277_4way_191to4way_190 273_4way_190to4way_189 271_4way_189to4way_188 272_4way_188to4way_203 64_4way_203to3way_218 61_3way_218to3way_217 59_3way_217to3way_216 57_3way_216to3way_215 55_3way_215to3way_214"/>
    </vehicle>
    <vehicle id="31" depart="41.33">
        <route edges="66_3way_219to4way_204 274_4way_204to4way_189 247_4way_189to4way_174 218_4way_174to4way_159 193_4way_159to4way_144 168_4way_144to4way_129 142_4way_129to4way_114 143_4way_114to4way_99 405_4way_99to4way_84 380_4way_84to4way_69 355_4way_69to4way_54 352_4way_54to4way_53"/>
    </vehicle>
    <vehicle id="32" depart="42.67">
        <route edges="365_4way_63to4way_62 366_4way_62to4way_77 391_4way_77to4way_92 409_4way_92to4way_91 104_4way_91to3way_90 11_3way_90to3way_105 10_3way_105to3way_120 19_3way_120to3way_135"/>
    </vehicle>
    <vehicle id="33" depart="44.00">
        <route edges="28_3way_149to4way_148 198_4way_148to4way_147 196_4way_147to4way_146 194_4way_146to4way_145 195_4way_145to4way_160 222_4way_160to4way_175 249_4way_175to4way_190 278_4way_190to4way_205"/>
    </vehicle>
    <vehicle id="34" depart="45.33">
        <route edges="23_3way_149to3way_134 15_3way_134to3way_119 7_3way_119to3way_104 8_3way_104to3way_89 96_3way_89to3way_74 97_3way_74to4way_73 385_4way_73to4way_72 383_4way_72to4way_71"/>
    </vehicle>
    <vehicle id="35" depart="46.67">
        <route edges="287_4way_199to4way_200 266_4way_200to4way_185 239_4way_185to4way_170 210_4way_170to4way_155 209_4way_155to4way_156 211_4way_156to4way_157 213_4way_157to4way_158 215_4way_158to4way_159 217_4way_159to4way_160 221_4way_160to4way_161 223_4way_161to4way_162 225_4way_162to4way_163 200_4way_163to4way_148 175_4way_148to4way_133"/>
    </vehicle>
    <vehicle id="36" depart="48.00">
        <route edges="376_4way_67to4way_82 401_4way_82to4way_97 137_4way_97to4way_112 136_4way_112to4way_127 163_4way_127to4way_128 165_4way_128to4way_129 167_4way_129to4way_130 169_4way_130to4way_131 171_4way_131to4way_132 173_4way_132to4way_133"/>
    </vehicle>
    <vehicle id="37" depart="49.33">
        <route edges="103_3way_9to4way_24 305_4way_24to4way_39 330_4way_39to4way_54 355_4way_54to4way_69 380_4way_69to4way_84 405_4way_84to4way_99 143_4way_99to4way_114 142_4way_114to4way_129"/>
    </vehicle>
    <vehicle id="38" depart="50.67">
        <route edges="73_3way_223to4way_208 283_4way_208to4way_193 254_4way_193to4way_178 252_4way_178to4way_177 250_4way_177to4way_176 248_4way_176to4way_175 246_4way_175to4way_174 244_4way_174to4way_173 242_4way_173to4way_172 240_4way_172to4way_171 238_4way_171to4way_170 234_4way_170to4way_169 232_4way_169to4way_168 230_4way_168to4way_167 228_4way_167to4way_166"/>
    </vehicle>
    <vehicle id="39" depart="52.00">
        <route edges="71_3way_223to3way_222 69_3way_222to3way_221 67_3way_221to3way_220 65_3way_220to3way_219 66_3way_219to4way_204 274_4way_204to4way_189 247_4way_189to4way_174 218_4way_174to4way_159 193_4way_159to4way_144 168_4way_144to4way_129 142_4way_129to4way_114 143_4way_114to4way_99 405_4way_99to4way_84 402_4way_84to4way_83 400_4way_83to4way_82 398_4way_82to4way_81 396_4way_81to4way_80 394_4way_80to4way_79 392_4way_79to4way_78 390_4way_78to4way_77 366_4way_77to4way_62 341_4way_62to4way_47 316_4way_47to4way_32 237_4way_32to4way_17"/>
    </vehicle>
    <vehicle id="40" depart="53.33">
        <route edges="255_4way_19to4way_18 236_4way_18to4way_17 237_4way_17to4way_32 316_4way_32to4way_47 341_4way_47to4way_62 366_4way_62to4way_77 391_4way_77to4way_92"/>
    </vehicle>
    <vehicle id="41" depart="54.67">
        <route edges="244_4way_173to4way_174 246_4way_174to4way_175 248_4way_175to4way_176 250_4way_176to4way_177 252_4way_177to4way_178 38_4way_178to3way_179 33_3way_179to3way_164 27_3way_164to3way_149 23_3way_149to3way_134 15_3way_134to3way_119 7_3way_119to3way_104 8_3way_104to3way_89 96_3way_89to3way_74 88_3way_74to3way_59 82_3way_59to3way_44"/>
    </vehicle>
    <vehicle id="42" depart="56.00">
        <route edges="118_4way_106to4way_121 152_4way_121to4way_136 176_4way_136to4way_137 178_4way_137to4way_138 180_4way_138to4way_139 182_4way_139to4way_140 184_4way_140to4way_141"/>
    </vehicle>
    <vehicle id="43" depart="57.33">
        <route edges="24_3way_134to4way_133 173_4way_133to4way_132 174_4way_132to4way_147 199_4way_147to4way_162 226_4way_162to4way_177 253_4way_177to4way_192 279_4way_192to4way_191 277_4way_191to4way_190 273_4way_190to4way_189 271_4way_189to4way_188 269_4way_188to4way_187 267_4way_187to4way_186 265_4way_186to4way_185"/>
    </vehicle>
    <vehicle id="44" depart="58.67">
        <route edges="250_4way_177to4way_176 248_4way_176to4way_175 246_4way_175to4way_174 244_4way_174to4way_173 242_4way_173to4way_172 240_4way_172to4way_171"/>
    </vehicle>
    <vehicle id="45" depart="60.00">
        <route edges="400_4way_83to4way_82 398_4way_82to4way_81 396_4way_81to4way_80 394_4way_80to4way_79 392_4way_79to4way_78 390_4way_78to4way_77 391_4way_77to4way_92"/>
    </vehicle>
    <vehicle id="46" depart="61.33">
        <route edges="355_4way_54to4way_69 380_4way_69to4way_84 405_4way_84to4way_99 143_4way_99to4way_114 142_4way_114to4way_129 168_4way_129to4way_144 193_4way_144to4way_159 218_4way_159to4way_174 247_4way_174to4way_189 274_4way_189to4way_204 66_4way_204to3way_219 65_3way_219to3way_220"/>
    </vehicle>
    <vehicle id="47" depart="62.67">
        <route edges="40_3way_180to4way_181"/>
    </vehicle>
    <vehicle id="48" depart="64.00">
        <route edges="87_3way_5to4way_20 289_4way_20to4way_35 322_4way_35to4way_50 347_4way_50to4way_65 372_4way_65to4way_80 397_4way_80to4way_95 131_4way_95to4way_110 130_4way_110to4way_125 160_4way_125to4way_140 185_4way_140to4way_155 210_4way_155to4way_170 239_4way_170to4way_185 266_4way_185to4way_200 290_4way_200to4way_201"/>
    </vehicle>
    <vehicle id="49" depart="65.33">
        <route edges="46_3way_2to4way_17 237_4way_17to4way_32 315_4way_32to4way_33 317_4way_33to4way_34 319_4way_34to4way_35 321_4way_35to4way_36 323_4way_36to4way_37 325_4way_37to4way_38 327_4way_38to4way_39 329_4way_39to4way_40 331_4way_40to4way_41"/>
    </vehicle>
    <vehicle id="50" depart="66.67">
        <route edges="151_4way_121to4way_122 153_4way_122to4way_123 155_4way_123to4way_124 157_4way_124to4way_125 159_4way_125to4way_126 161_4way_126to4way_127 163_4way_127to4way_128 139_4way_128to4way_113"/>
    </vehicle>
    <vehicle id="51" depart="68.00">
        <route edges="408_4way_88to4way_87 407_4way_87to4way_86 406_4way_86to4way_85 404_4way_85to4way_84 405_4way_84to4way_99 143_4way_99to4way_114"/>
    </vehicle>
    <vehicle id="52" depart="69.33">
        <route edges="212_4way_171to4way_156 187_4way_156to4way_141 162_4way_141to4way_126 133_4way_126to4way_111 134_4way_111to4way_96 399_4way_96to4way_81 374_4way_81to4way_66 349_4way_66to4way_51 346_4way_51to4way_50 344_4way_50to4way_49 342_4way_49to4way_48 340_4way_48to4way_47 338_4way_47to4way_46"/>
    </vehicle>
    <vehicle id="53" depart="70.67">
        <route edges="211_4way_156to4way_157 189_4way_157to4way_142 164_4way_142to4way_127 136_4way_127to4way_112 137_4way_112to4way_97 401_4way_97to4way_82 376_4way_82to4way_67 351_4way_67to4way_52 326_4way_52to4way_37 301_4way_37to4way_22"/>
    </vehicle>
    <vehicle id="54" depart="72.00">
        <route edges="360_4way_58to4way_57 358_4way_57to4way_56 356_4way_56to4way_55 354_4way_55to4way_54 352_4way_54to4way_53 350_4way_53to4way_52 348_4way_52to4way_51 346_4way_51to4way_50 344_4way_50to4way_49 342_4way_49to4way_48 340_4way_48to4way_47 338_4way_47to4way_46 85_4way_46to3way_45"/>
    </vehicle>
    <vehicle id="55" depart="73.33">
        <route edges="105_4way_101to4way_100 108_4way_100to4way_99 416_4way_99to4way_98 415_4way_98to4way_97 414_4way_97to4way_96 413_4way_96to4way_95 412_4way_95to4way_94 128_4way_94to4way_109 127_4way_109to4way_124"/>
    </vehicle>
    <vehicle id="56" depart="74.67">
        <route edges="237_4way_17to4way_32 316_4way_32to4way_47 341_4way_47to4way_62 366_4way_62to4way_77 391_4way_77to4way_92 122_4way_92to4way_107 121_4way_107to4way_122 154_4way_122to4way_137 179_4way_137to4way_152 204_4way_152to4way_167 231_4way_167to4way_182 259_4way_182to4way_183 261_4way_183to4way_184 263_4way_184to4way_185 265_4way_185to4way_186 267_4way_186to4way_187 269_4way_187to4way_188"/>
    </vehicle>
    <vehicle id="57" depart="76.00">
        <route edges="206_4way_153to4way_168 232_4way_168to4way_169 234_4way_169to4way_170 238_4way_170to4way_171 240_4way_171to4way_172 242_4way_172to4way_173 244_4way_173to4way_174 246_4way_174to4way_175"/>
    </vehicle>
    <vehicle id="58" depart="77.33">
        <route edges="268_4way_186to4way_201 291_4way_201to4way_202 292_4way_202to4way_203 293_4way_203to4way_204 294_4way_204to4way_205 295_4way_205to4way_206"/>
    </vehicle>
    <vehicle id="59" depart="78.67">
        <route edges="245_4way_173to4way_188 272_4way_188to4way_203 293_4way_203to4way_204 294_4way_204to4way_205 295_4way_205to4way_206"/>
    </vehicle>
    <vehicle id="60" depart="80.00">
        <route edges="131_4way_110to4way_95 397_4way_95to4way_80 396_4way_80to4way_81 398_4way_81to4way_82 400_4way_82to4way_83 402_4way_83to4way_84"/>
    </vehicle>
    <vehicle id="61" depart="81.33">
        <route edges="292_4way_202to4way_203 293_4way_203to4way_204 294_4way_204to4way_205 295_4way_205to4way_206 296_4way_206to4way_207 297_4way_207to4way_208 283_4way_208to4way_193 254_4way_193to4way_178 227_4way_178to4way_163 200_4way_163to4way_148 175_4way_148to4way_133 150_4way_133to4way_118 115_4way_118to4way_103 116_4way_103to4way_88 387_4way_88to4way_73"/>
    </vehicle>
    <vehicle id="62" depart="82.67">
        <route edges="376_4way_82to4way_67 351_4way_67to4way_52 348_4way_52to4way_51 346_4way_51to4way_50 344_4way_50to4way_49"/>
    </vehicle>
    <vehicle id="63" depart="84.00">
        <route edges="315_4way_32to4way_33 317_4way_33to4way_34 319_4way_34to4way_35 289_4way_35to4way_20 87_4way_20to3way_5"/>
    </vehicle>
    <vehicle id="64" depart="85.33">
        <route edges="284_4way_196to4way_197 285_4way_197to4way_198 286_4way_198to4way_199 287_4way_199to4way_200 266_4way_200to4way_185 239_4way_185to4way_170 210_4way_170to4way_155 185_4way_155to4way_140 160_4way_140to4way_125 130_4way_125to4way_110 131_4way_110to4way_95 397_4way_95to4way_80 396_4way_80to4way_81 398_4way_81to4way_82 400_4way_82to4way_83 378_4way_83to4way_68 353_4way_68to4way_53"/>
    </vehicle>
    <vehicle id="65" depart="86.66">
        <route edges="369_4way_64to4way_65 371_4way_65to4way_66 373_4way_66to4way_67 376_4way_67to4way_82 401_4way_82to4way_97 137_4way_97to4way_112"/>
    </vehicle>
    <vehicle id="66" depart="88.00">
        <route edges="237_4way_17to4way_32 316_4way_32to4way_47 340_4way_47to4way_48 342_4way_48to4way_49 344_4way_49to4way_50 346_4way_50to4way_51 348_4way_51to4way_52 350_4way_52to4way_53 352_4way_53to4way_54 354_4way_54to4way_55 357_4way_55to4way_70 382_4way_70to4way_85 107_4way_85to4way_100 106_4way_100to4way_115 145_4way_115to4way_130 170_4way_130to4way_145 195_4way_145to4way_160 222_4way_160to4way_175 249_4way_175to4way_190 278_4way_190to4way_205 68_4way_205to3way_220"/>
    </vehicle>
    <vehicle id="67" depart="89.33">
        <route edges="298_4way_22to4way_21 299_4way_21to4way_36 324_4way_36to4way_51 349_4way_51to4way_66 374_4way_66to4way_81 399_4way_81to4way_96 134_4way_96to4way_111 133_4way_111to4way_126 162_4way_126to4way_141"/>
    </vehicle>
    <vehicle id="68" depart="90.66">
        <route edges="325_4way_38to4way_37 323_4way_37to4way_36 324_4way_36to4way_51 349_4way_51to4way_66 374_4way_66to4way_81 399_4way_81to4way_96 134_4way_96to4way_111 133_4way_111to4way_126 162_4way_126to4way_141 187_4way_141to4way_156"/>
    </vehicle>
    <vehicle id="69" depart="92.00">
        <route edges="394_4way_79to4way_80 396_4way_80to4way_81 398_4way_81to4way_82 400_4way_82to4way_83 378_4way_83to4way_68 353_4way_68to4way_53 328_4way_53to4way_38"/>
    </vehicle>
    <vehicle id="70" depart="93.33">
        <route edges="367_4way_63to4way_64 369_4way_64to4way_65 371_4way_65to4way_66 373_4way_66to4way_67 375_4way_67to4way_68 377_4way_68to4way_69 379_4way_69to4way_70 381_4way_70to4way_71 383_4way_71to4way_72"/>
    </vehicle>
    <vehicle id="71" depart="94.66">
        <route edges="358_4way_57to4way_56 356_4way_56to4way_55 354_4way_55to4way_54 352_4way_54to4way_53 353_4way_53to4way_68 378_4way_68to4way_83 403_4way_83to4way_98 415_4way_98to4way_97 414_4way_97to4way_96 413_4way_96to4way_95 412_4way_95to4way_94"/>
    </vehicle>
    <vehicle id="72" depart="96.00">
        <route edges="293_4way_203to4way_204 294_4way_204to4way_205 278_4way_205to4way_190 249_4way_190to4way_175 222_4way_175to4way_160"/>
    </vehicle>
    <vehicle id="73" depart="97.33">
        <route edges="198_4way_147to4way_148 28_4way_148to3way_149 27_3way_149to3way_164"/>
    </vehicle>
    <vehicle id="74" depart="98.66">
        <route edges="297_4way_208to4way_207 296_4way_207to4way_206 295_4way_206to4way_205 294_4way_205to4way_204 274_4way_204to4way_189 247_4way_189to4way_174 218_4way_174to4way_159 193_4way_159to4way_144 168_4way_144to4way_129 142_4way_129to4way_114 143_4way_114to4way_99 405_4way_99to4way_84 380_4way_84to4way_69 355_4way_69to4way_54 330_4way_54to4way_39"/>
    </vehicle>
    <vehicle id="75" depart="100.00">
        <route edges="224_4way_161to4way_176 251_4way_176to4way_191 280_4way_191to4way_206 70_4way_206to3way_221 67_3way_221to3way_220 65_3way_220to3way_219 63_3way_219to3way_218 61_3way_218to3way_217 59_3way_217to3way_216"/>
    </vehicle>
    <vehicle id="76" depart="101.33">
        <route edges="132_4way_112to4way_111 129_4way_111to4way_110 130_4way_110to4way_125 160_4way_125to4way_140 185_4way_140to4way_155 210_4way_155to4way_170 239_4way_170to4way_185 266_4way_185to4way_200 58_4way_200to3way_215 55_3way_215to3way_214"/>
    </vehicle>
    <vehicle id="77" depart="102.66">
        <route edges="110_4way_101to4way_116 147_4way_116to4way_131 172_4way_131to4way_146 197_4way_146to4way_161 224_4way_161to4way_176 251_4way_176to4way_191 280_4way_191to4way_206 70_4way_206to3way_221 69_3way_221to3way_222"/>
    </vehicle>
    <vehicle id="78" depart="104.00">
        <route edges="187_4way_141to4way_156 211_4way_156to4way_157 213_4way_157to4way_158 215_4way_158to4way_159 217_4way_159to4way_160"/>
    </vehicle>
    <vehicle id="79" depart="105.33">
        <route edges="89_3way_59to4way_58 360_4way_58to4way_57 358_4way_57to4way_56 359_4way_56to4way_71 384_4way_71to4way_86 111_4way_86to4way_101 110_4way_101to4way_116 144_4way_116to4way_115 141_4way_115to4way_114 138_4way_114to4way_113 135_4way_113to4way_112 132_4way_112to4way_111 129_4way_111to4way_110 126_4way_110to4way_109 123_4way_109to4way_108 124_4way_108to4way_123 156_4way_123to4way_138 181_4way_138to4way_153 206_4way_153to4way_168 233_4way_168to4way_183"/>
    </vehicle>
    <vehicle id="80" depart="106.66">
        <route edges="208_4way_154to4way_169 235_4way_169to4way_184 263_4way_184to4way_185 265_4way_185to4way_186 267_4way_186to4way_187 269_4way_187to4way_188"/>
    </vehicle>
    <vehicle id="81" depart="108.00">
        <route edges="197_4way_161to4way_146 172_4way_146to4way_131 147_4way_131to4way_116 110_4way_116to4way_101 111_4way_101to4way_86 384_4way_86to4way_71 381_4way_71to4way_70 379_4way_70to4way_69"/>
    </vehicle>
    <vehicle id="82" depart="109.33">
        <route edges="171_4way_131to4way_132 173_4way_132to4way_133"/>
    </vehicle>
    <vehicle id="83" depart="110.66">
        <route edges="256_4way_33to4way_18 77_4way_18to3way_3"/>
    </vehicle>
    <vehicle id="84" depart="112.00">
        <route edges="51_3way_212to3way_213 53_3way_213to3way_214 55_3way_214to3way_215 57_3way_215to3way_216 59_3way_216to3way_217 61_3way_217to3way_218 64_3way_218to4way_203 272_4way_203to4way_188 245_4way_188to4way_173 216_4way_173to4way_158 191_4way_158to4way_143 166_4way_143to4way_128 139_4way_128to4way_113 140_4way_113to4way_98 416_4way_98to4way_99"/>
    </vehicle>
    <vehicle id="85" depart="113.33">
        <route edges="17_3way_13to3way_12 13_3way_12to3way_11 4_3way_11to3way_10 5_3way_10to3way_9 100_3way_9to3way_8 94_3way_8to3way_7 90_3way_7to3way_6 91_3way_6to4way_21 299_4way_21to4way_36 324_4way_36to4way_51 349_4way_51to4way_66 374_4way_66to4way_81 399_4way_81to4way_96 134_4way_96to4way_111 133_4way_111to4way_126 162_4way_126to4way_141 187_4way_141to4way_156 212_4way_156to4way_171 241_4way_171to4way_186 265_4way_186to4way_185"/>
    </vehicle>
    <vehicle id="86" depart="114.66">
        <route edges="80_3way_5to3way_4 76_3way_4to3way_3 45_3way_3to3way_2 2_3way_2to3way_1 1_3way_1to3way_15 29_3way_15to3way_30 78_3way_30to3way_45 84_3way_45to3way_60 92_3way_60to3way_75 98_3way_75to3way_90 11_3way_90to3way_105 10_3way_105to3way_120"/>
    </vehicle>
    <vehicle id="87" depart="116.00">
        <route edges="84_3way_45to3way_60 92_3way_60to3way_75 98_3way_75to3way_90 11_3way_90to3way_105 12_3way_105to4way_106 117_4way_106to4way_107 120_4way_107to4way_108 123_4way_108to4way_109 126_4way_109to4way_110 129_4way_110to4way_111 132_4way_111to4way_112 135_4way_112to4way_113 138_4way_113to4way_114 141_4way_114to4way_115"/>
    </vehicle>
    <vehicle id="88" depart="117.33">
        <route edges="250_4way_177to4way_176 248_4way_176to4way_175 246_4way_175to4way_174 244_4way_174to4way_173 242_4way_173to4way_172 240_4way_172to4way_171 238_4way_171to4way_170 234_4way_170to4way_169 232_4way_169to4way_168 230_4way_168to4way_167 231_4way_167to4way_182"/>
    </vehicle>
    <vehicle id="89" depart="118.66">
        <route edges="101_3way_8to4way_23 303_4way_23to4way_38 328_4way_38to4way_53 353_4way_53to4way_68 378_4way_68to4way_83 403_4way_83to4way_98 140_4way_98to4way_113 139_4way_113to4way_128 166_4way_128to4way_143 191_4way_143to4way_158 216_4way_158to4way_173 245_4way_173to4way_188 272_4way_188to4way_203"/>
    </vehicle>
    <vehicle id="90" depart="120.00">
        <route edges="161_4way_127to4way_126 159_4way_126to4way_125 160_4way_125to4way_140 185_4way_140to4way_155 210_4way_155to4way_170 239_4way_170to4way_185 266_4way_185to4way_200 58_4way_200to3way_215 55_3way_215to3way_214 53_3way_214to3way_213"/>
    </vehicle>
    <vehicle id="91" depart="121.33">
        <route edges="220_4way_16to4way_31 314_4way_31to4way_46 339_4way_46to4way_61 364_4way_61to4way_76 389_4way_76to4way_91 119_4way_91to4way_106 118_4way_106to4way_121 152_4way_121to4way_136 177_4way_136to4way_151 202_4way_151to4way_166 228_4way_166to4way_167 230_4way_167to4way_168 232_4way_168to4way_169 234_4way_169to4way_170 238_4way_170to4way_171"/>
    </vehicle>
    <vehicle id="92" depart="122.66">
        <route edges="415_4way_97to4way_98 416_4way_98to4way_99 108_4way_99to4way_100 105_4way_100to4way_101 109_4way_101to4way_102 113_4way_102to4way_117 149_4way_117to4way_132 174_4way_132to4way_147 199_4way_147to4way_162 226_4way_162to4way_177 253_4way_177to4way_192"/>
    </vehicle>
    <vehicle id="93" depart="124.00">
        <route edges="298_4way_22to4way_21 299_4way_21to4way_36"/>
    </vehicle>
    <vehicle id="94" depart="125.33">
        <route edges="366_4way_62to4way_77 391_4way_77to4way_92 410_4way_92to4way_93 411_4way_93to4way_94 412_4way_94to4way_95 413_4way_95to4way_96 414_4way_96to4way_97 415_4way_97to4way_98 416_4way_98to4way_99"/>
    </vehicle>
    <vehicle id="95" depart="126.66">
        <route edges="11_3way_90to3way_105 10_3way_105to3way_120 19_3way_120to3way_135 25_3way_135to3way_150 31_3way_150to3way_165 36_3way_165to4way_166 228_4way_166to4way_167 230_4way_167to4way_168"/>
    </vehicle>
    <vehicle id="96" depart="128.00">
        <route edges="310_4way_28to4way_27 308_4way_27to4way_26 306_4way_26to4way_25 304_4way_25to4way_24 302_4way_24to4way_23 300_4way_23to4way_22 298_4way_22to4way_21 299_4way_21to4way_36 324_4way_36to4way_51 349_4way_51to4way_66 374_4way_66to4way_81 399_4way_81to4way_96 134_4way_96to4way_111 133_4way_111to4way_126 162_4way_126to4way_141 187_4way_141to4way_156 212_4way_156to4way_171 238_4way_171to4way_170 234_4way_170to4way_169 232_4way_169to4way_168 230_4way_168to4way_167 228_4way_167to4way_166 36_4way_166to3way_165"/>
    </vehicle>
    <vehicle id="97" depart="129.33">
        <route edges="397_4way_80to4way_95 131_4way_95to4way_110 130_4way_110to4way_125 159_4way_125to4way_126 161_4way_126to4way_127 163_4way_127to4way_128 165_4way_128to4way_129"/>
    </vehicle>
    <vehicle id="98" depart="130.66">
        <route edges="99_4way_76to3way_75 92_3way_75to3way_60 84_3way_60to3way_45 78_3way_45to3way_30"/>
    </vehicle>
    <vehicle id="99" depart="132.00">