<routes xmlns:xsi="http://www.w3.org/2001/XMLSchema-instance" xsi:noNamespaceSchemaLocation="http://sumo.dlr.de/xsd/routes_file.xsd">
<trip id="0" depart="0.0" fromJunction="4way_54" toJunction="4way_81"/>
<trip id="1" depart="1.3333" fromJunction="4way_66" toJunction="4way_67"/>
<trip id="2" depart="2.6666" fromJunction="4way_202" toJunction="4way_49"/>
<trip id="3" depart="3.9999" fromJunction="4way_57" toJunction="4way_94"/>
<trip id="4" depart="5.3332" fromJunction="4way_108" toJunction="4way_88"/>
<trip id="5" depart="6.666499999999999" fromJunction="4way_200" toJunction="4way_100"/>
<trip id="6" depart="7.9998" fromJunction="4way_162" toJunction="4way_141"/>
<trip id="7" depart="9.3331" fromJunction="3way_119" toJunction="3way_59"/>
<trip id="8" depart="10.6664" fromJunction="4way_56" toJunction="3way_5"/>
<trip id="9" depart="11.999699999999999" fromJunction="4way_176" toJunction="4way_55"/>
<trip id="10" depart="13.332999999999998" fromJunction="4way_130" toJunction="4way_148"/>
<trip id="11" depart="14.6663" fromJunction="4way_70" toJunction="4way_169"/>
<trip id="12" depart="15.9996" fromJunction="4way_187" toJunction="3way_223"/>
<trip id="13" depart="17.3329" fromJunction="4way_28" toJunction="3way_218"/>
<trip id="14" depart="18.6662" fromJunction="4way_19" toJunction="4way_185"/>
<trip id="15" depart="19.999499999999998" fromJunction="4way_55" toJunction="4way_106"/>
<trip id="16" depart="21.3328" fromJunction="4way_141" toJunction="4way_154"/>
<trip id="17" depart="22.6661" fromJunction="4way_112" toJunction="3way_5"/>
<trip id="18" depart="23.999399999999998" fromJunction="4way_112" toJunction="4way_97"/>
<trip id="19" depart="25.3327" fromJunction="4way_128" toJunction="4way_28"/>
<trip id="20" depart="26.665999999999997" fromJunction="4way_94" toJunction="4way_33"/>
<trip id="21" depart="27.999299999999998" fromJunction="3way_29" toJunction="4way_188"/>
<trip id="22" depart="29.3326" fromJunction="4way_98" toJunction="4way_83"/>
<trip id="23" depart="30.665899999999997" fromJunction="3way_221" toJunction="3way_90"/>
<trip id="24" depart="31.9992" fromJunction="4way_48" toJunction="4way_77"/>
<trip id="25" depart="33.332499999999996" fromJunction="4way_94" toJunction="4way_156"/>
<trip id="26" depart="34.6658" fromJunction="3way_164" toJunction="4way_178"/>
<trip id="27" depart="35.9991" fromJunction="3way_214" toJunction="3way_90"/>
<trip id="28" depart="37.3324" fromJunction="4way_61" toJunction="4way_38"/>
<trip id="29" depart="38.6657" fromJunction="4way_46" toJunction="4way_199"/>
<trip id="30" depart="39.998999999999995" fromJunction="3way_194" toJunction="3way_214"/>
<trip id="31" depart="41.3323" fromJunction="3way_219" toJunction="4way_53"/>
<trip id="32" depart="42.6656" fromJunction="4way_63" toJunction="3way_135"/>
<trip id="33" depart="43.9989" fromJunction="3way_149" toJunction="4way_205"/>
<trip id="34" depart="45.3322" fromJunction="3way_149" toJunction="4way_71"/>
<trip id="35" depart="46.665499999999994" fromJunction="4way_199" toJunction="4way_133"/>
<trip id="36" depart="47.998799999999996" fromJunction="4way_67" toJunction="4way_133"/>
<trip id="37" depart="49.3321" fromJunction="3way_9" toJunction="4way_129"/>
<trip id="38" depart="50.6654" fromJunction="3way_223" toJunction="4way_166"/>
<trip id="39" depart="51.9987" fromJunction="3way_223" toJunction="4way_17"/>
<trip id="40" depart="53.331999999999994" fromJunction="4way_19" toJunction="4way_92"/>
<trip id="41" depart="54.665299999999995" fromJunction="4way_173" toJunction="3way_44"/>
<trip id="42" depart="55.998599999999996" fromJunction="4way_106" toJunction="4way_141"/>
<trip id="43" depart="57.3319" fromJunction="3way_134" toJunction="4way_185"/>
<trip id="44" depart="58.6652" fromJunction="4way_177" toJunction="4way_171"/>
<trip id="45" depart="59.9985" fromJunction="4way_83" toJunction="4way_92"/>
<trip id="46" depart="61.331799999999994" fromJunction="4way_54" toJunction="3way_220"/>
<trip id="47" depart="62.665099999999995" fromJunction="3way_180" toJunction="4way_181"/>
<trip id="48" depart="63.9984" fromJunction="3way_5" toJunction="4way_201"/>
<trip id="49" depart="65.3317" fromJunction="3way_2" toJunction="4way_41"/>
<trip id="50" depart="66.66499999999999" fromJunction="4way_121" toJunction="4way_113"/>
<trip id="51" depart="67.9983" fromJunction="4way_88" toJunction="4way_114"/>
<trip id="52" depart="69.3316" fromJunction="4way_171" toJunction="4way_46"/>
<trip id="53" depart="70.6649" fromJunction="4way_156" toJunction="4way_22"/>
<trip id="54" depart="71.9982" fromJunction="4way_58" toJunction="3way_45"/>
<trip id="55" depart="73.33149999999999" fromJunction="4way_101" toJunction="4way_124"/>
<trip id="56" depart="74.6648" fromJunction="4way_17" toJunction="4way_188"/>
<trip id="57" depart="75.9981" fromJunction="4way_153" toJunction="4way_175"/>
<trip id="58" depart="77.3314" fromJunction="4way_186" toJunction="4way_206"/>
<trip id="59" depart="78.6647" fromJunction="4way_173" toJunction="4way_206"/>
<trip id="60" depart="79.99799999999999" fromJunction="4way_110" toJunction="4way_84"/>
<trip id="61" depart="81.3313" fromJunction="4way_202" toJunction="4way_73"/>
<trip id="62" depart="82.6646" fromJunction="4way_82" toJunction="4way_49"/>
<trip id="63" depart="83.9979" fromJunction="4way_32" toJunction="3way_5"/>
<trip id="64" depart="85.3312" fromJunction="4way_196" toJunction="4way_53"/>
<trip id="65" depart="86.66449999999999" fromJunction="4way_64" toJunction="4way_112"/>
<trip id="66" depart="87.9978" fromJunction="4way_17" toJunction="3way_220"/>
<trip id="67" depart="89.33109999999999" fromJunction="4way_22" toJunction="4way_141"/>
<trip id="68" depart="90.6644" fromJunction="4way_38" toJunction="4way_156"/>
<trip id="69" depart="91.9977" fromJunction="4way_79" toJunction="4way_38"/>
<trip id="70" depart="93.33099999999999" fromJunction="4way_63" toJunction="4way_72"/>
<trip id="71" depart="94.6643" fromJunction="4way_57" toJunction="4way_94"/>
<trip id="72" depart="95.99759999999999" fromJunction="4way_203" toJunction="4way_160"/>
<trip id="73" depart="97.3309" fromJunction="4way_147" toJunction="3way_164"/>
<trip id="74" depart="98.6642" fromJunction="4way_208" toJunction="4way_39"/>
<trip id="75" depart="99.99749999999999" fromJunction="4way_161" toJunction="3way_216"/>
<trip id="76" depart="101.3308" fromJunction="4way_112" toJunction="3way_214"/>
<trip id="77" depart="102.66409999999999" fromJunction="4way_101" toJunction="3way_222"/>
<trip id="78" depart="103.9974" fromJunction="4way_141" toJunction="4way_160"/>
<trip id="79" depart="105.3307" fromJunction="3way_59" toJunction="4way_183"/>
<trip id="80" depart="106.66399999999999" fromJunction="4way_154" toJunction="4way_188"/>
<trip id="81" depart="107.9973" fromJunction="4way_161" toJunction="4way_69"/>
<trip id="82" depart="109.33059999999999" fromJunction="4way_131" toJunction="4way_133"/>
<trip id="83" depart="110.6639" fromJunction="4way_33" toJunction="3way_3"/>
<trip id="84" depart="111.99719999999999" fromJunction="3way_212" toJunction="4way_99"/>
<trip id="85" depart="113.3305" fromJunction="3way_13" toJunction="4way_185"/>
<trip id="86" depart="114.6638" fromJunction="3way_5" toJunction="3way_120"/>
<trip id="87" depart="115.99709999999999" fromJunction="3way_45" toJunction="4way_115"/>
<trip id="88" depart="117.3304" fromJunction="4way_177" toJunction="4way_182"/>
<trip id="89" depart="118.66369999999999" fromJunction="3way_8" toJunction="4way_203"/>
<trip id="90" depart="119.997" fromJunction="4way_127" toJunction="3way_213"/>
<trip id="91" depart="121.3303" fromJunction="4way_16" toJunction="4way_171"/>
<trip id="92" depart="122.66359999999999" fromJunction="4way_97" toJunction="4way_192"/>
<trip id="93" depart="123.9969" fromJunction="4way_22" toJunction="4way_36"/>
<trip id="94" depart="125.33019999999999" fromJunction="4way_62" toJunction="4way_99"/>
<trip id="95" depart="126.6635" fromJunction="3way_90" toJunction="4way_168"/>
<trip id="96" depart="127.9968" fromJunction="4way_28" toJunction="3way_165"/>
<trip id="97" depart="129.3301" fromJunction="4way_80" toJunction="4way_129"/>
<trip id="98" depart="130.6634" fromJunction="4way_76" toJunction="3way_30"/>
<trip id="99" depart="131.9967" fromJunction="4way_94" toJunction="3way_13"/>
<trip id="100" depart="133.32999999999998" fromJunction="4way_173" toJunction="4way_62"/>
<trip id="101" depart="134.6633" fromJunction="3way_195" toJunction="4way_93"/>
<trip id="102" depart="135.9966" fromJunction="3way_44" toJunction="3way_6"/>
<trip id="103" depart="137.32989999999998" fromJunction="4way_154" toJunction="4way_128"/>
<trip id="104" depart="138.6632" fromJunction="4way_72" toJunction="4way_36"/>
<trip id="105" depart="139.9965" fromJunction="3way_75" toJunction="4way_178"/>
<trip id="106" depart="141.3298" fromJunction="4way_106" toJunction="4way_68"/>
<trip id="107" depart="142.6631" fromJunction="4way_189" toJunction="3way_5"/>
<trip id="108" depart="143.9964" fromJunction="4way_108" toJunction="4way_92"/>
<trip id="109" depart="145.3297" fromJunction="4way_41" toJunction="4way_22"/>
<trip id="110" depart="146.66299999999998" fromJunction="4way_176" toJunction="4way_157"/>
<trip id="111" depart="147.9963" fromJunction="4way_130" toJunction="4way_136"/>
<trip id="112" depart="149.3296" fromJunction="4way_58" toJunction="3way_165"/>
<trip id="113" depart="150.66289999999998" fromJunction="3way_75" toJunction="4way_143"/>
<trip id="114" depart="151.9962" fromJunction="4way_99" toJunction="4way_43"/>
<trip id="115" depart="153.3295" fromJunction="3way_75" toJunction="4way_76"/>
<trip id="116" depart="154.6628" fromJunction="3way_6" toJunction="4way_170"/>
<trip id="117" depart="155.99609999999998" fromJunction="4way_49" toJunction="3way_105"/>
<trip id="118" depart="157.3294" fromJunction="4way_184" toJunction="4way_78"/>
<trip id="119" depart="158.6627" fromJunction="4way_201" toJunction="4way_151"/>
<trip id="120" depart="159.99599999999998" fromJunction="3way_209" toJunction="4way_146"/>
<trip id="121" depart="161.3293" fromJunction="3way_220" toJunction="4way_170"/>
<trip id="122" depart="162.6626" fromJunction="4way_153" toJunction="4way_54"/>
<trip id="123" depart="163.99589999999998" fromJunction="3way_180" toJunction="4way_126"/>
<trip id="124" depart="165.3292" fromJunction="4way_65" toJunction="3way_217"/>
<trip id="125" depart="166.6625" fromJunction="4way_207" toJunction="4way_18"/>
<trip id="126" depart="167.9958" fromJunction="4way_159" toJunction="4way_25"/>
<trip id="127" depart="169.32909999999998" fromJunction="3way_104" toJunction="4way_87"/>
<trip id="128" depart="170.6624" fromJunction="4way_201" toJunction="4way_96"/>
<trip id="129" depart="171.9957" fromJunction="4way_196" toJunction="4way_88"/>
<trip id="130" depart="173.32899999999998" fromJunction="3way_164" toJunction="4way_31"/>
<trip id="131" depart="174.6623" fromJunction="4way_177" toJunction="3way_4"/>
<trip id="132" depart="175.9956" fromJunction="4way_85" toJunction="4way_98"/>
<trip id="133" depart="177.3289" fromJunction="4way_201" toJunction="4way_166"/>
<trip id="134" depart="178.66219999999998" fromJunction="4way_65" toJunction="3way_44"/>
<trip id="135" depart="179.9955" fromJunction="4way_191" toJunction="4way_148"/>
<trip id="136" depart="181.3288" fromJunction="4way_88" toJunction="4way_152"/>
<trip id="137" depart="182.66209999999998" fromJunction="4way_43" toJunction="3way_15"/>
<trip id="138" depart="183.9954" fromJunction="4way_130" toJunction="4way_28"/>
<trip id="139" depart="185.3287" fromJunction="4way_191" toJunction="4way_157"/>
<trip id="140" depart="186.66199999999998" fromJunction="4way_101" toJunction="4way_196"/>
<trip id="141" depart="187.9953" fromJunction="3way_3" toJunction="4way_112"/>
<trip id="142" depart="189.3286" fromJunction="3way_217" toJunction="4way_182"/>
<trip id="143" depart="190.6619" fromJunction="4way_35" toJunction="4way_148"/>
<trip id="144" depart="191.99519999999998" fromJunction="4way_187" toJunction="4way_95"/>
<trip id="145" depart="193.3285" fromJunction="3way_219" toJunction="4way_63"/>
<trip id="146" depart="194.6618" fromJunction="3way_165" toJunction="4way_205"/>
<trip id="147" depart="195.99509999999998" fromJunction="3way_45" toJunction="4way_155"/>
<trip id="148" depart="197.3284" fromJunction="4way_146" toJunction="3way_149"/>
<trip id="149" depart="198.6617" fromJunction="4way_88" toJunction="4way_133"/>
<trip id="150" depart="199.99499999999998" fromJunction="4way_55" toJunction="4way_102"/>
<trip id="151" depart="201.32829999999998" fromJunction="3way_89" toJunction="4way_137"/>
<trip id="152" depart="202.6616" fromJunction="3way_15" toJunction="4way_198"/>
<trip id="153" depart="203.9949" fromJunction="3way_12" toJunction="3way_220"/>
<trip id="154" depart="205.32819999999998" fromJunction="3way_3" toJunction="4way_84"/>
<trip id="155" depart="206.6615" fromJunction="3way_217" toJunction="4way_40"/>
<trip id="156" depart="207.9948" fromJunction="3way_119" toJunction="3way_89"/>
<trip id="157" depart="209.32809999999998" fromJunction="4way_46" toJunction="4way_98"/>
<trip id="158" depart="210.6614" fromJunction="4way_111" toJunction="4way_34"/>
<trip id="159" depart="211.9947" fromJunction="4way_84" toJunction="4way_146"/>
<trip id="160" depart="213.32799999999997" fromJunction="3way_220" toJunction="4way_121"/>
<trip id="161" depart="214.66129999999998" fromJunction="4way_32" toJunction="3way_13"/>
<trip id="162" depart="215.9946" fromJunction="4way_154" toJunction="4way_91"/>
<trip id="163" depart="217.3279" fromJunction="4way_173" toJunction="4way_143"/>
<trip id="164" depart="218.66119999999998" fromJunction="4way_93" toJunction="4way_166"/>
<trip id="165" depart="219.9945" fromJunction="4way_100" toJunction="3way_180"/>
<trip id="166" depart="221.3278" fromJunction="4way_188" toJunction="3way_13"/>
<trip id="167" depart="222.66109999999998" fromJunction="4way_55" toJunction="4way_70"/>
<trip id="168" depart="223.99439999999998" fromJunction="4way_78" toJunction="4way_91"/>
<trip id="169" depart="225.3277" fromJunction="4way_136" toJunction="4way_201"/>
<trip id="170" depart="226.661" fromJunction="3way_135" toJunction="4way_63"/>
<trip id="171" depart="227.99429999999998" fromJunction="3way_10" toJunction="4way_169"/>
<trip id="172" depart="229.3276" fromJunction="3way_89" toJunction="4way_130"/>
<trip id="173" depart="230.6609" fromJunction="4way_47" toJunction="4way_170"/>
<trip id="174" depart="231.99419999999998" fromJunction="4way_88" toJunction="4way_171"/>
<trip id="175" depart="233.3275" fromJunction="3way_8" toJunction="4way_202"/>
<trip id="176" depart="234.6608" fromJunction="4way_140" toJunction="4way_79"/>
<trip id="177" depart="235.99409999999997" fromJunction="4way_128" toJunction="4way_36"/>
<trip id="178" depart="237.32739999999998" fromJunction="3way_221" toJunction="4way_151"/>
<trip id="179" depart="238.6607" fromJunction="4way_73" toJunction="4way_138"/>
<trip id="180" depart="239.994" fromJunction="4way_87" toJunction="3way_165"/>
<trip id="181" depart="241.32729999999998" fromJunction="4way_154" toJunction="4way_66"/>
<trip id="182" depart="242.6606" fromJunction="4way_169" toJunction="4way_206"/>
<trip id="183" depart="243.9939" fromJunction="4way_168" toJunction="4way_84"/>
<trip id="184" depart="245.32719999999998" fromJunction="4way_158" toJunction="4way_87"/>
<trip id="185" depart="246.66049999999998" fromJunction="4way_122" toJunction="4way_188"/>
<trip id="186" depart="247.9938" fromJunction="4way_172" toJunction="4way_189"/>
<trip id="187" depart="249.32709999999997" fromJunction="3way_214" toJunction="4way_31"/>
<trip id="188" depart="250.66039999999998" fromJunction="4way_73" toJunction="4way_130"/>
<trip id="189" depart="251.9937" fromJunction="4way_22" toJunction="4way_169"/>
<trip id="190" depart="253.327" fromJunction="4way_169" toJunction="4way_131"/>
<trip id="191" depart="254.66029999999998" fromJunction="4way_171" toJunction="4way_58"/>
<trip id="192" depart="255.9936" fromJunction="4way_102" toJunction="4way_205"/>
<trip id="193" depart="257.32689999999997" fromJunction="3way_214" toJunction="4way_190"/>
<trip id="194" depart="258.6602" fromJunction="4way_168" toJunction="4way_142"/>
<trip id="195" depart="259.9935" fromJunction="4way_49" toJunction="3way_29"/>
<trip id="196" depart="261.3268" fromJunction="4way_101" toJunction="4way_91"/>
<trip id="197" depart="262.6601" fromJunction="4way_73" toJunction="3way_8"/>
<trip id="198" depart="263.9934" fromJunction="3way_180" toJunction="3way_4"/>
<trip id="199" depart="265.32669999999996" fromJunction="4way_177" toJunction="4way_168"/>
<trip id="200" depart="266.65999999999997" fromJunction="4way_28" toJunction="3way_164"/>
<trip id="201" depart="267.9933" fromJunction="4way_154" toJunction="4way_176"/>
<trip id="202" depart="269.3266" fromJunction="3way_15" toJunction="4way_122"/>
<trip id="203" depart="270.6599" fromJunction="3way_8" toJunction="4way_97"/>
<trip id="204" depart="271.9932" fromJunction="4way_64" toJunction="3way_4"/>
<trip id="205" depart="273.3265" fromJunction="4way_61" toJunction="3way_59"/>
<trip id="206" depart="274.65979999999996" fromJunction="4way_61" toJunction="3way_60"/>
<trip id="207" depart="275.99309999999997" fromJunction="3way_3" toJunction="3way_221"/>
<trip id="208" depart="277.3264" fromJunction="4way_112" toJunction="3way_209"/>
<trip id="209" depart="278.6597" fromJunction="4way_178" toJunction="4way_133"/>
<trip id="210" depart="279.993" fromJunction="3way_213" toJunction="4way_198"/>
<trip id="211" depart="281.3263" fromJunction="4way_80" toJunction="4way_187"/>
<trip id="212" depart="282.6596" fromJunction="3way_44" toJunction="4way_178"/>
<trip id="213" depart="283.99289999999996" fromJunction="4way_181" toJunction="4way_85"/>
<trip id="214" depart="285.3262" fromJunction="4way_68" toJunction="4way_31"/>
<trip id="215" depart="286.6595" fromJunction="4way_83" toJunction="4way_46"/>
<trip id="216" depart="287.9928" fromJunction="4way_49" toJunction="4way_170"/>
<trip id="217" depart="289.3261" fromJunction="4way_181" toJunction="4way_96"/>
<trip id="218" depart="290.6594" fromJunction="4way_19" toJunction="4way_24"/>
<trip id="219" depart="291.99269999999996" fromJunction="4way_41" toJunction="4way_33"/>
<trip id="220" depart="293.32599999999996" fromJunction="3way_11" toJunction="4way_162"/>
<trip id="221" depart="294.6593" fromJunction="4way_197" toJunction="3way_15"/>
<trip id="222" depart="295.9926" fromJunction="4way_163" toJunction="4way_190"/>
<trip id="223" depart="297.3259" fromJunction="4way_87" toJunction="4way_118"/>
<trip id="224" depart="298.6592" fromJunction="4way_193" toJunction="4way_17"/>
<trip id="225" depart="299.9925" fromJunction="3way_179" toJunction="4way_61"/>
<trip id="226" depart="301.32579999999996" fromJunction="3way_15" toJunction="4way_58"/>
<trip id="227" depart="302.65909999999997" fromJunction="3way_13" toJunction="4way_158"/>
<trip id="228" depart="303.9924" fromJunction="4way_206" toJunction="4way_99"/>
<trip id="229" depart="305.3257" fromJunction="4way_93" toJunction="4way_136"/>
<trip id="230" depart="306.659" fromJunction="4way_159" toJunction="4way_78"/>
<trip id="231" depart="307.9923" fromJunction="3way_212" toJunction="4way_16"/>
<trip id="232" depart="309.3256" fromJunction="4way_47" toJunction="4way_139"/>
<trip id="233" depart="310.65889999999996" fromJunction="4way_16" toJunction="4way_71"/>
<trip id="234" depart="311.99219999999997" fromJunction="4way_28" toJunction="4way_125"/>
<trip id="235" depart="313.3255" fromJunction="4way_161" toJunction="4way_172"/>
<trip id="236" depart="314.6588" fromJunction="4way_159" toJunction="4way_207"/>
<trip id="237" depart="315.9921" fromJunction="4way_103" toJunction="4way_188"/>
<trip id="238" depart="317.3254" fromJunction="4way_139" toJunction="4way_193"/>
<trip id="239" depart="318.6587" fromJunction="4way_196" toJunction="3way_59"/>
<trip id="240" depart="319.99199999999996" fromJunction="4way_34" toJunction="3way_216"/>
<trip id="241" depart="321.32529999999997" fromJunction="4way_67" toJunction="3way_220"/>
<trip id="242" depart="322.6586" fromJunction="4way_57" toJunction="4way_108"/>
<trip id="243" depart="323.9919" fromJunction="4way_66" toJunction="4way_103"/>
<trip id="244" depart="325.3252" fromJunction="4way_22" toJunction="4way_136"/>
<trip id="245" depart="326.6585" fromJunction="4way_183" toJunction="4way_72"/>
<trip id="246" depart="327.99179999999996" fromJunction="4way_136" toJunction="4way_96"/>
<trip id="247" depart="329.32509999999996" fromJunction="4way_168" toJunction="4way_154"/>
<trip id="248" depart="330.6584" fromJunction="4way_125" toJunction="4way_46"/>
<trip id="249" depart="331.9917" fromJunction="4way_78" toJunction="4way_62"/>
<trip id="250" depart="333.325" fromJunction="4way_159" toJunction="4way_200"/>
<trip id="251" depart="334.6583" fromJunction="4way_162" toJunction="4way_137"/>
<trip id="252" depart="335.9916" fromJunction="3way_11" toJunction="4way_146"/>
<trip id="253" depart="337.32489999999996" fromJunction="4way_124" toJunction="4way_76"/>
<trip id="254" depart="338.65819999999997" fromJunction="4way_197" toJunction="3way_179"/>
<trip id="255" depart="339.9915" fromJunction="4way_128" toJunction="4way_129"/>
<trip id="256" depart="341.3248" fromJunction="4way_39" toJunction="4way_127"/>
<trip id="257" depart="342.6581" fromJunction="4way_167" toJunction="3way_105"/>
<trip id="258" depart="343.9914" fromJunction="4way_206" toJunction="4way_113"/>
<trip id="259" depart="345.3247" fromJunction="4way_166" toJunction="4way_66"/>
<trip id="260" depart="346.65799999999996" fromJunction="4way_24" toJunction="3way_7"/>
<trip id="261" depart="347.99129999999997" fromJunction="4way_78" toJunction="3way_2"/>
<trip id="262" depart="349.3246" fromJunction="4way_147" toJunction="4way_21"/>
<trip id="263" depart="350.6579" fromJunction="4way_183" toJunction="3way_119"/>
<trip id="264" depart="351.9912" fromJunction="4way_167" toJunction="3way_6"/>
<trip id="265" depart="353.3245" fromJunction="4way_151" toJunction="4way_127"/>
<trip id="266" depart="354.6578" fromJunction="3way_209" toJunction="3way_90"/>
<trip id="267" depart="355.99109999999996" fromJunction="4way_173" toJunction="4way_171"/>
<trip id="268" depart="357.32439999999997" fromJunction="4way_43" toJunction="4way_98"/>
<trip id="269" depart="358.6577" fromJunction="4way_23" toJunction="3way_1"/>
<trip id="270" depart="359.991" fromJunction="4way_22" toJunction="4way_52"/>
<trip id="271" depart="361.3243" fromJunction="3way_4" toJunction="4way_88"/>
<trip id="272" depart="362.6576" fromJunction="4way_175" toJunction="4way_173"/>
<trip id="273" depart="363.99089999999995" fromJunction="4way_137" toJunction="4way_140"/>
<trip id="274" depart="365.32419999999996" fromJunction="3way_149" toJunction="4way_100"/>
<trip id="275" depart="366.65749999999997" fromJunction="4way_170" toJunction="4way_109"/>
<trip id="276" depart="367.9908" fromJunction="3way_134" toJunction="4way_173"/>
<trip id="277" depart="369.3241" fromJunction="4way_198" toJunction="3way_30"/>
<trip id="278" depart="370.6574" fromJunction="4way_42" toJunction="4way_127"/>
<trip id="279" depart="371.9907" fromJunction="3way_220" toJunction="4way_112"/>
<trip id="280" depart="373.32399999999996" fromJunction="4way_176" toJunction="4way_148"/>
<trip id="281" depart="374.65729999999996" fromJunction="4way_147" toJunction="4way_125"/>
<trip id="282" depart="375.9906" fromJunction="4way_162" toJunction="4way_51"/>
<trip id="283" depart="377.3239" fromJunction="4way_103" toJunction="4way_41"/>
<trip id="284" depart="378.6572" fromJunction="3way_8" toJunction="4way_147"/>
<trip id="285" depart="379.9905" fromJunction="4way_123" toJunction="3way_211"/>
<trip id="286" depart="381.3238" fromJunction="4way_32" toJunction="4way_58"/>
<trip id="287" depart="382.65709999999996" fromJunction="4way_27" toJunction="3way_214"/>
<trip id="288" depart="383.99039999999997" fromJunction="4way_102" toJunction="4way_124"/>
<trip id="289" depart="385.3237" fromJunction="4way_68" toJunction="3way_214"/>
<trip id="290" depart="386.657" fromJunction="3way_74" toJunction="4way_109"/>
<trip id="291" depart="387.9903" fromJunction="4way_46" toJunction="4way_173"/>
<trip id="292" depart="389.3236" fromJunction="3way_29" toJunction="3way_9"/>
<trip id="293" depart="390.6569" fromJunction="4way_102" toJunction="3way_29"/>
<trip id="294" depart="391.99019999999996" fromJunction="4way_72" toJunction="4way_129"/>
<trip id="295" depart="393.32349999999997" fromJunction="4way_200" toJunction="4way_98"/>
<trip id="296" depart="394.6568" fromJunction="4way_208" toJunction="4way_47"/>
<trip id="297" depart="395.9901" fromJunction="4way_20" toJunction="4way_48"/>
<trip id="298" depart="397.3234" fromJunction="4way_148" toJunction="4way_93"/>
<trip id="299" depart="398.6567" fromJunction="4way_122" toJunction="3way_211"/>
<trip id="300" depart="399.98999999999995" fromJunction="3way_29" toJunction="4way_128"/>
<trip id="301" depart="401.32329999999996" fromJunction="4way_35" toJunction="4way_82"/>
<trip id="302" depart="402.65659999999997" fromJunction="4way_16" toJunction="4way_166"/>
<trip id="303" depart="403.9899" fromJunction="4way_63" toJunction="4way_155"/>
<trip id="304" depart="405.3232" fromJunction="4way_152" toJunction="4way_154"/>
<trip id="305" depart="406.6565" fromJunction="3way_220" toJunction="4way_118"/>
<trip id="306" depart="407.9898" fromJunction="4way_167" toJunction="3way_149"/>
<trip id="307" depart="409.32309999999995" fromJunction="4way_53" toJunction="4way_22"/>
<trip id="308" depart="410.65639999999996" fromJunction="4way_208" toJunction="4way_153"/>
<trip id="309" depart="411.98969999999997" fromJunction="4way_69" toJunction="4way_197"/>
<trip id="310" depart="413.323" fromJunction="4way_175" toJunction="4way_172"/>
<trip id="311" depart="414.6563" fromJunction="4way_42" toJunction="4way_133"/>
<trip id="312" depart="415.9896" fromJunction="4way_188" toJunction="4way_204"/>
<trip id="313" depart="417.3229" fromJunction="3way_217" toJunction="4way_152"/>
<trip id="314" depart="418.65619999999996" fromJunction="4way_31" toJunction="3way_29"/>
<trip id="315" depart="419.98949999999996" fromJunction="4way_185" toJunction="4way_79"/>
<trip id="316" depart="421.3228" fromJunction="4way_73" toJunction="4way_40"/>
<trip id="317" depart="422.6561" fromJunction="3way_179" toJunction="3way_209"/>
<trip id="318" depart="423.9894" fromJunction="4way_144" toJunction="4way_22"/>
<trip id="319" depart="425.3227" fromJunction="4way_192" toJunction="4way_101"/>
<trip id="320" depart="426.65599999999995" fromJunction="4way_168" toJunction="4way_163"/>
<trip id="321" depart="427.98929999999996" fromJunction="3way_217" toJunction="4way_108"/>
<trip id="322" depart="429.32259999999997" fromJunction="4way_53" toJunction="4way_143"/>
<trip id="323" depart="430.6559" fromJunction="3way_149" toJunction="4way_146"/>
<trip id="324" depart="431.9892" fromJunction="4way_186" toJunction="4way_110"/>
<trip id="325" depart="433.3225" fromJunction="3way_212" toJunction="4way_31"/>
<trip id="326" depart="434.6558" fromJunction="3way_13" toJunction="4way_131"/>
<trip id="327" depart="435.98909999999995" fromJunction="3way_209" toJunction="4way_20"/>
<trip id="328" depart="437.32239999999996" fromJunction="4way_148" toJunction="4way_169"/>
<trip id="329" depart="438.65569999999997" fromJunction="4way_131" toJunction="4way_49"/>
<trip id="330" depart="439.989" fromJunction="4way_121" toJunction="3way_209"/>
<trip id="331" depart="441.3223" fromJunction="4way_168" toJunction="4way_183"/>
<trip id="332" depart="442.6556" fromJunction="4way_182" toJunction="4way_98"/>
<trip id="333" depart="443.9889" fromJunction="4way_187" toJunction="4way_39"/>
<trip id="334" depart="445.32219999999995" fromJunction="4way_79" toJunction="4way_168"/>
<trip id="335" depart="446.65549999999996" fromJunction="3way_59" toJunction="4way_97"/>
<trip id="336" depart="447.98879999999997" fromJunction="4way_38" toJunction="4way_205"/>
<trip id="337" depart="449.3221" fromJunction="4way_36" toJunction="4way_84"/>
<trip id="338" depart="450.6554" fromJunction="4way_183" toJunction="3way_194"/>
<trip id="339" depart="451.9887" fromJunction="4way_92" toJunction="4way_183"/>
<trip id="340" depart="453.322" fromJunction="4way_114" toJunction="3way_7"/>
<trip id="341" depart="454.65529999999995" fromJunction="4way_67" toJunction="3way_194"/>
<trip id="342" depart="455.98859999999996" fromJunction="4way_172" toJunction="4way_203"/>
<trip id="343" depart="457.32189999999997" fromJunction="3way_164" toJunction="4way_73"/>
<trip id="344" depart="458.6552" fromJunction="3way_7" toJunction="4way_161"/>
<trip id="345" depart="459.9885" fromJunction="4way_183" toJunction="4way_36"/>
<trip id="346" depart="461.3218" fromJunction="4way_48" toJunction="4way_185"/>
<trip id="347" depart="462.65509999999995" fromJunction="3way_5" toJunction="3way_150"/>
<trip id="348" depart="463.98839999999996" fromJunction="4way_86" toJunction="4way_170"/>
<trip id="349" depart="465.32169999999996" fromJunction="3way_45" toJunction="4way_78"/>
<trip id="350" depart="466.655" fromJunction="3way_104" toJunction="3way_89"/>
<trip id="351" depart="467.9883" fromJunction="3way_164" toJunction="3way_60"/>
<trip id="352" depart="469.3216" fromJunction="3way_44" toJunction="4way_106"/>
<trip id="353" depart="470.6549" fromJunction="4way_131" toJunction="3way_44"/>
<trip id="354" depart="471.98819999999995" fromJunction="4way_111" toJunction="3way_214"/>
<trip id="355" depart="473.32149999999996" fromJunction="4way_154" toJunction="4way_40"/>
<trip id="356" depart="474.65479999999997" fromJunction="3way_120" toJunction="3way_216"/>
<trip id="357" depart="475.9881" fromJunction="4way_200" toJunction="4way_79"/>
<trip id="358" depart="477.3214" fromJunction="4way_70" toJunction="4way_197"/>
<trip id="359" depart="478.6547" fromJunction="4way_162" toJunction="4way_159"/>