<routes xmlns:xsi="http://www.w3.org/2001/XMLSchema-instance" xsi:noNamespaceSchemaLocation="http://sumo.dlr.de/xsd/routes_file.xsd">
<trip id="0" depart="0.0" fromJunction="4way_20" toJunction="4way_13"/>
<trip id="1" depart="0.3508" fromJunction="4way_13" toJunction="4way_25"/>
<trip id="2" depart="0.7016" fromJunction="4way_8" toJunction="3way_18"/>
<trip id="3" depart="1.0524" fromJunction="4way_10" toJunction="3way_12"/>
<trip id="4" depart="1.4032" fromJunction="3way_24" toJunction="4way_22"/>
<trip id="5" depart="1.754" fromJunction="4way_7" toJunction="4way_15"/>
<trip id="6" depart="2.1048" fromJunction="4way_16" toJunction="4way_19"/>
<trip id="7" depart="2.4556" fromJunction="4way_21" toJunction="3way_1"/>
<trip id="8" depart="2.8064" fromJunction="4way_27" toJunction="4way_9"/>
<trip id="9" depart="3.1572" fromJunction="4way_15" toJunction="4way_28"/>
<trip id="10" depart="3.508" fromJunction="4way_9" toJunction="3way_12"/>
<trip id="11" depart="3.8588" fromJunction="4way_8" toJunction="3way_4"/>
<trip id="12" depart="4.2096" fromJunction="4way_22" toJunction="3way_11"/>
<trip id="13" depart="4.5604" fromJunction="3way_18" toJunction="4way_7"/>
<trip id="14" depart="4.9112" fromJunction="4way_9" toJunction="3way_34"/>
<trip id="15" depart="5.2620000000000005" fromJunction="4way_19" toJunction="3way_12"/>
<trip id="16" depart="5.6128" fromJunction="4way_25" toJunction="3way_1"/>
<trip id="17" depart="5.9636" fromJunction="4way_14" toJunction="4way_22"/>
<trip id="18" depart="6.3144" fromJunction="3way_18" toJunction="3way_31"/>
<trip id="19" depart="6.6652000000000005" fromJunction="3way_2" toJunction="4way_20"/>
<trip id="20" depart="7.016" fromJunction="3way_11" toJunction="3way_23"/>
<trip id="21" depart="7.3668" fromJunction="3way_31" toJunction="3way_32"/>
<trip id="22" depart="7.7176" fromJunction="3way_12" toJunction="4way_19"/>
<trip id="23" depart="8.0684" fromJunction="3way_4" toJunction="4way_28"/>
<trip id="24" depart="8.4192" fromJunction="3way_17" toJunction="3way_23"/>
<trip id="25" depart="8.77" fromJunction="3way_34" toJunction="4way_8"/>
<trip id="26" depart="9.1208" fromJunction="3way_29" toJunction="3way_12"/>
<trip id="27" depart="9.4716" fromJunction="3way_4" toJunction="3way_17"/>
<trip id="28" depart="9.8224" fromJunction="3way_11" toJunction="4way_14"/>
<trip id="29" depart="10.1732" fromJunction="3way_31" toJunction="3way_23"/>
<trip id="30" depart="10.524000000000001" fromJunction="3way_4" toJunction="4way_21"/>
<trip id="31" depart="10.8748" fromJunction="3way_4" toJunction="4way_21"/>
<trip id="32" depart="11.2256" fromJunction="3way_12" toJunction="4way_28"/>
<trip id="33" depart="11.5764" fromJunction="4way_25" toJunction="4way_28"/>
<trip id="34" depart="11.9272" fromJunction="3way_2" toJunction="4way_26"/>
<trip id="35" depart="12.278" fromJunction="3way_4" toJunction="3way_33"/>
<trip id="36" depart="12.6288" fromJunction="3way_4" toJunction="3way_33"/>
<trip id="37" depart="12.9796" fromJunction="3way_18" toJunction="3way_32"/>
<trip id="38" depart="13.330400000000001" fromJunction="4way_20" toJunction="3way_3"/>
<trip id="39" depart="13.6812" fromJunction="3way_34" toJunction="4way_19"/>
<trip id="40" depart="14.032" fromJunction="3way_4" toJunction="4way_7"/>
<trip id="41" depart="14.3828" fromJunction="4way_16" toJunction="4way_19"/>
<trip id="42" depart="14.7336" fromJunction="4way_14" toJunction="3way_32"/>
<trip id="43" depart="15.0844" fromJunction="4way_20" toJunction="3way_11"/>
<trip id="44" depart="15.4352" fromJunction="3way_17" toJunction="3way_33"/>
<trip id="45" depart="15.786" fromJunction="3way_1" toJunction="4way_19"/>
<trip id="46" depart="16.1368" fromJunction="3way_1" toJunction="4way_21"/>
<trip id="47" depart="16.4876" fromJunction="3way_34" toJunction="4way_14"/>
<trip id="48" depart="16.8384" fromJunction="4way_22" toJunction="4way_26"/>
<trip id="49" depart="17.1892" fromJunction="4way_19" toJunction="3way_29"/>
<trip id="50" depart="17.54" fromJunction="4way_22" toJunction="3way_29"/>
<trip id="51" depart="17.8908" fromJunction="4way_27" toJunction="3way_12"/>
<trip id="52" depart="18.2416" fromJunction="3way_33" toJunction="4way_20"/>
<trip id="53" depart="18.5924" fromJunction="3way_24" toJunction="4way_21"/>
<trip id="54" depart="18.9432" fromJunction="4way_19" toJunction="4way_10"/>
<trip id="55" depart="19.294" fromJunction="4way_20" toJunction="4way_10"/>
<trip id="56" depart="19.6448" fromJunction="4way_7" toJunction="4way_26"/>
<trip id="57" depart="19.9956" fromJunction="4way_8" toJunction="4way_22"/>
<trip id="58" depart="20.3464" fromJunction="4way_25" toJunction="3way_18"/>
<trip id="59" depart="20.6972" fromJunction="3way_33" toJunction="3way_1"/>
<trip id="60" depart="21.048000000000002" fromJunction="3way_33" toJunction="4way_14"/>
<trip id="61" depart="21.3988" fromJunction="3way_18" toJunction="4way_25"/>
<trip id="62" depart="21.7496" fromJunction="3way_33" toJunction="3way_11"/>
<trip id="63" depart="22.1004" fromJunction="4way_8" toJunction="4way_19"/>
<trip id="64" depart="22.4512" fromJunction="3way_18" toJunction="4way_8"/>
<trip id="65" depart="22.802" fromJunction="3way_31" toJunction="4way_10"/>
<trip id="66" depart="23.1528" fromJunction="4way_10" toJunction="3way_18"/>
<trip id="67" depart="23.5036" fromJunction="4way_20" toJunction="4way_15"/>
<trip id="68" depart="23.8544" fromJunction="4way_16" toJunction="3way_4"/>
<trip id="69" depart="24.2052" fromJunction="4way_28" toJunction="4way_20"/>
<trip id="70" depart="24.556" fromJunction="4way_27" toJunction="3way_11"/>
<trip id="71" depart="24.9068" fromJunction="4way_25" toJunction="3way_17"/>
<trip id="72" depart="25.2576" fromJunction="4way_27" toJunction="3way_4"/>
<trip id="73" depart="25.6084" fromJunction="4way_19" toJunction="4way_15"/>
<trip id="74" depart="25.9592" fromJunction="3way_3" toJunction="3way_18"/>
<trip id="75" depart="26.31" fromJunction="3way_12" toJunction="4way_20"/>
<trip id="76" depart="26.660800000000002" fromJunction="4way_27" toJunction="4way_26"/>
<trip id="77" depart="27.0116" fromJunction="4way_27" toJunction="4way_28"/>
<trip id="78" depart="27.3624" fromJunction="3way_31" toJunction="3way_1"/>
<trip id="79" depart="27.7132" fromJunction="3way_17" toJunction="4way_26"/>
<trip id="80" depart="28.064" fromJunction="3way_2" toJunction="4way_7"/>
<trip id="81" depart="28.4148" fromJunction="3way_1" toJunction="3way_23"/>
<trip id="82" depart="28.7656" fromJunction="3way_29" toJunction="4way_15"/>
<trip id="83" depart="29.1164" fromJunction="4way_16" toJunction="3way_31"/>
<trip id="84" depart="29.4672" fromJunction="3way_2" toJunction="4way_20"/>
<trip id="85" depart="29.818" fromJunction="4way_25" toJunction="3way_17"/>
<trip id="86" depart="30.1688" fromJunction="3way_29" toJunction="4way_19"/>
<trip id="87" depart="30.5196" fromJunction="4way_25" toJunction="4way_16"/>
<trip id="88" depart="30.8704" fromJunction="4way_19" toJunction="4way_13"/>
<trip id="89" depart="31.2212" fromJunction="3way_33" toJunction="4way_26"/>
<trip id="90" depart="31.572" fromJunction="3way_23" toJunction="3way_24"/>
<trip id="91" depart="31.9228" fromJunction="4way_22" toJunction="3way_17"/>
<trip id="92" depart="32.2736" fromJunction="3way_6" toJunction="4way_26"/>
<trip id="93" depart="32.6244" fromJunction="3way_34" toJunction="3way_29"/>
<trip id="94" depart="32.9752" fromJunction="3way_18" toJunction="3way_2"/>
<trip id="95" depart="33.326" fromJunction="4way_20" toJunction="3way_33"/>
<trip id="96" depart="33.6768" fromJunction="3way_17" toJunction="3way_24"/>
<trip id="97" depart="34.0276" fromJunction="3way_3" toJunction="3way_1"/>
<trip id="98" depart="34.3784" fromJunction="3way_12" toJunction="4way_14"/>
<trip id="99" depart="34.7292" fromJunction="4way_10" toJunction="4way_13"/>
<trip id="100" depart="35.08" fromJunction="3way_23" toJunction="4way_28"/>
<trip id="101" depart="35.4308" fromJunction="3way_34" toJunction="4way_14"/>
<trip id="102" depart="35.7816" fromJunction="4way_9" toJunction="3way_1"/>
<trip id="103" depart="36.1324" fromJunction="3way_24" toJunction="3way_32"/>
<trip id="104" depart="36.4832" fromJunction="4way_21" toJunction="4way_19"/>
<trip id="105" depart="36.834" fromJunction="4way_27" toJunction="4way_8"/>
<trip id="106" depart="37.1848" fromJunction="4way_15" toJunction="3way_34"/>
<trip id="107" depart="37.5356" fromJunction="4way_22" toJunction="3way_17"/>
<trip id="108" depart="37.8864" fromJunction="3way_23" toJunction="4way_14"/>
<trip id="109" depart="38.2372" fromJunction="4way_26" toJunction="4way_22"/>
<trip id="110" depart="38.588" fromJunction="3way_23" toJunction="3way_34"/>
<trip id="111" depart="38.9388" fromJunction="3way_1" toJunction="4way_7"/>
<trip id="112" depart="39.2896" fromJunction="3way_18" toJunction="3way_23"/>
<trip id="113" depart="39.6404" fromJunction="3way_12" toJunction="3way_31"/>
<trip id="114" depart="39.9912" fromJunction="4way_19" toJunction="3way_34"/>
<trip id="115" depart="40.342" fromJunction="3way_4" toJunction="4way_27"/>
<trip id="116" depart="40.6928" fromJunction="3way_11" toJunction="4way_7"/>
<trip id="117" depart="41.0436" fromJunction="3way_24" toJunction="4way_20"/>
<trip id="118" depart="41.3944" fromJunction="3way_17" toJunction="4way_19"/>
<trip id="119" depart="41.7452" fromJunction="3way_6" toJunction="3way_11"/>
<trip id="120" depart="42.096000000000004" fromJunction="4way_22" toJunction="3way_31"/>
<trip id="121" depart="42.4468" fromJunction="4way_26" toJunction="4way_9"/>
<trip id="122" depart="42.7976" fromJunction="3way_3" toJunction="4way_10"/>
<trip id="123" depart="43.1484" fromJunction="4way_19" toJunction="4way_13"/>
<trip id="124" depart="43.4992" fromJunction="3way_33" toJunction="4way_22"/>
<trip id="125" depart="43.85" fromJunction="3way_4" toJunction="3way_29"/>
<trip id="126" depart="44.2008" fromJunction="4way_16" toJunction="3way_1"/>
<trip id="127" depart="44.5516" fromJunction="4way_15" toJunction="4way_14"/>
<trip id="128" depart="44.9024" fromJunction="4way_19" toJunction="3way_33"/>
<trip id="129" depart="45.2532" fromJunction="3way_6" toJunction="3way_3"/>
<trip id="130" depart="45.604" fromJunction="4way_10" toJunction="4way_28"/>
<trip id="131" depart="45.9548" fromJunction="4way_22" toJunction="3way_32"/>
<trip id="132" depart="46.3056" fromJunction="4way_22" toJunction="3way_29"/>
<trip id="133" depart="46.6564" fromJunction="4way_15" toJunction="4way_22"/>
<trip id="134" depart="47.0072" fromJunction="4way_27" toJunction="4way_8"/>
<trip id="135" depart="47.358" fromJunction="4way_27" toJunction="3way_33"/>
<trip id="136" depart="47.7088" fromJunction="3way_1" toJunction="4way_25"/>
<trip id="137" depart="48.0596" fromJunction="3way_11" toJunction="3way_31"/>
<trip id="138" depart="48.4104" fromJunction="3way_6" toJunction="4way_28"/>
<trip id="139" depart="48.7612" fromJunction="4way_8" toJunction="3way_6"/>
<trip id="140" depart="49.112" fromJunction="3way_11" toJunction="3way_31"/>
<trip id="141" depart="49.4628" fromJunction="3way_23" toJunction="4way_21"/>
<trip id="142" depart="49.8136" fromJunction="3way_29" toJunction="4way_7"/>
<trip id="143" depart="50.1644" fromJunction="4way_27" toJunction="3way_4"/>
<trip id="144" depart="50.5152" fromJunction="4way_22" toJunction="4way_28"/>
<trip id="145" depart="50.866" fromJunction="4way_9" toJunction="4way_16"/>
<trip id="146" depart="51.2168" fromJunction="3way_3" toJunction="3way_32"/>
<trip id="147" depart="51.5676" fromJunction="3way_29" toJunction="3way_18"/>
<trip id="148" depart="51.9184" fromJunction="3way_2" toJunction="3way_11"/>
<trip id="149" depart="52.2692" fromJunction="3way_1" toJunction="4way_26"/>
<trip id="150" depart="52.62" fromJunction="3way_11" toJunction="4way_9"/>
<trip id="151" depart="52.9708" fromJunction="3way_29" toJunction="4way_14"/>
<trip id="152" depart="53.321600000000004" fromJunction="4way_13" toJunction="3way_18"/>
<trip id="153" depart="53.6724" fromJunction="4way_26" toJunction="4way_27"/>
<trip id="154" depart="54.0232" fromJunction="3way_11" toJunction="3way_34"/>
<trip id="155" depart="54.374" fromJunction="3way_33" toJunction="3way_2"/>
<trip id="156" depart="54.7248" fromJunction="3way_12" toJunction="3way_34"/>
<trip id="157" depart="55.0756" fromJunction="4way_20" toJunction="4way_14"/>
<trip id="158" depart="55.4264" fromJunction="3way_24" toJunction="3way_33"/>
<trip id="159" depart="55.7772" fromJunction="4way_15" toJunction="3way_17"/>
<trip id="160" depart="56.128" fromJunction="4way_20" toJunction="3way_2"/>
<trip id="161" depart="56.4788" fromJunction="3way_31" toJunction="3way_34"/>
<trip id="162" depart="56.8296" fromJunction="3way_34" toJunction="4way_19"/>
<trip id="163" depart="57.1804" fromJunction="3way_23" toJunction="3way_31"/>
<trip id="164" depart="57.5312" fromJunction="3way_2" toJunction="3way_12"/>
<trip id="165" depart="57.882" fromJunction="3way_3" toJunction="4way_15"/>
<trip id="166" depart="58.2328" fromJunction="3way_33" toJunction="4way_7"/>
<trip id="167" depart="58.5836" fromJunction="4way_22" toJunction="4way_19"/>
<trip id="168" depart="58.9344" fromJunction="3way_2" toJunction="4way_8"/>
<trip id="169" depart="59.2852" fromJunction="4way_7" toJunction="3way_18"/>
<trip id="170" depart="59.636" fromJunction="4way_14" toJunction="4way_13"/>
<trip id="171" depart="59.9868" fromJunction="3way_11" toJunction="3way_34"/>
<trip id="172" depart="60.3376" fromJunction="4way_22" toJunction="3way_24"/>
<trip id="173" depart="60.6884" fromJunction="4way_10" toJunction="3way_17"/>
<trip id="174" depart="61.0392" fromJunction="3way_12" toJunction="4way_13"/>
<trip id="175" depart="61.39" fromJunction="3way_12" toJunction="4way_10"/>
<trip id="176" depart="61.7408" fromJunction="3way_24" toJunction="4way_26"/>
<trip id="177" depart="62.0916" fromJunction="4way_20" toJunction="4way_10"/>
<trip id="178" depart="62.4424" fromJunction="3way_32" toJunction="4way_20"/>
<trip id="179" depart="62.7932" fromJunction="4way_8" toJunction="4way_9"/>
<trip id="180" depart="63.144" fromJunction="3way_17" toJunction="3way_29"/>
<trip id="181" depart="63.4948" fromJunction="4way_22" toJunction="4way_15"/>
<trip id="182" depart="63.8456" fromJunction="4way_19" toJunction="3way_12"/>
<trip id="183" depart="64.1964" fromJunction="3way_12" toJunction="4way_27"/>
<trip id="184" depart="64.5472" fromJunction="4way_19" toJunction="4way_22"/>
<trip id="185" depart="64.898" fromJunction="4way_16" toJunction="4way_21"/>
<trip id="186" depart="65.2488" fromJunction="3way_17" toJunction="4way_21"/>
<trip id="187" depart="65.5996" fromJunction="3way_24" toJunction="4way_8"/>
<trip id="188" depart="65.9504" fromJunction="3way_18" toJunction="3way_3"/>
<trip id="189" depart="66.3012" fromJunction="4way_27" toJunction="3way_34"/>
<trip id="190" depart="66.652" fromJunction="4way_22" toJunction="3way_2"/>
<trip id="191" depart="67.0028" fromJunction="3way_17" toJunction="3way_1"/>
<trip id="192" depart="67.3536" fromJunction="4way_16" toJunction="3way_24"/>
<trip id="193" depart="67.7044" fromJunction="4way_22" toJunction="3way_4"/>
<trip id="194" depart="68.0552" fromJunction="3way_12" toJunction="4way_27"/>
<trip id="195" depart="68.406" fromJunction="3way_29" toJunction="3way_32"/>
<trip id="196" depart="68.7568" fromJunction="3way_2" toJunction="4way_25"/>
<trip id="197" depart="69.1076" fromJunction="3way_18" toJunction="3way_1"/>
<trip id="198" depart="69.4584" fromJunction="3way_34" toJunction="3way_3"/>
<trip id="199" depart="69.8092" fromJunction="3way_34" toJunction="3way_29"/>
<trip id="200" depart="70.16" fromJunction="3way_1" toJunction="3way_11"/>
<trip id="201" depart="70.5108" fromJunction="4way_25" toJunction="3way_4"/>
<trip id="202" depart="70.8616" fromJunction="3way_17" toJunction="3way_18"/>
<trip id="203" depart="71.2124" fromJunction="3way_6" toJunction="4way_8"/>
<trip id="204" depart="71.5632" fromJunction="3way_3" toJunction="4way_28"/>
<trip id="205" depart="71.914" fromJunction="3way_33" toJunction="4way_15"/>
<trip id="206" depart="72.2648" fromJunction="4way_14" toJunction="3way_29"/>
<trip id="207" depart="72.6156" fromJunction="4way_14" toJunction="3way_29"/>
<trip id="208" depart="72.9664" fromJunction="3way_18" toJunction="4way_7"/>
<trip id="209" depart="73.3172" fromJunction="3way_33" toJunction="4way_13"/>
<trip id="210" depart="73.668" fromJunction="3way_18" toJunction="4way_20"/>
<trip id="211" depart="74.0188" fromJunction="4way_21" toJunction="3way_31"/>
<trip id="212" depart="74.3696" fromJunction="3way_2" toJunction="4way_16"/>
<trip id="213" depart="74.7204" fromJunction="3way_31" toJunction="3way_29"/>
<trip id="214" depart="75.0712" fromJunction="4way_28" toJunction="4way_21"/>
<trip id="215" depart="75.422" fromJunction="4way_10" toJunction="4way_28"/>
<trip id="216" depart="75.7728" fromJunction="4way_28" toJunction="3way_33"/>
<trip id="217" depart="76.1236" fromJunction="3way_4" toJunction="3way_29"/>
<trip id="218" depart="76.4744" fromJunction="3way_29" toJunction="4way_22"/>
<trip id="219" depart="76.8252" fromJunction="3way_2" toJunction="4way_20"/>
<trip id="220" depart="77.176" fromJunction="4way_10" toJunction="4way_26"/>
<trip id="221" depart="77.5268" fromJunction="3way_24" toJunction="3way_34"/>
<trip id="222" depart="77.8776" fromJunction="4way_26" toJunction="3way_31"/>
<trip id="223" depart="78.2284" fromJunction="3way_17" toJunction="3way_29"/>
<trip id="224" depart="78.5792" fromJunction="3way_33" toJunction="3way_12"/>
<trip id="225" depart="78.93" fromJunction="3way_29" toJunction="4way_21"/>
<trip id="226" depart="79.2808" fromJunction="4way_22" toJunction="4way_7"/>
<trip id="227" depart="79.6316" fromJunction="4way_27" toJunction="4way_8"/>
<trip id="228" depart="79.9824" fromJunction="4way_9" toJunction="4way_22"/>
<trip id="229" depart="80.3332" fromJunction="4way_22" toJunction="4way_20"/>
<trip id="230" depart="80.684" fromJunction="3way_12" toJunction="4way_28"/>
<trip id="231" depart="81.0348" fromJunction="3way_33" toJunction="3way_3"/>
<trip id="232" depart="81.3856" fromJunction="3way_18" toJunction="3way_11"/>
<trip id="233" depart="81.7364" fromJunction="4way_25" toJunction="3way_11"/>
<trip id="234" depart="82.0872" fromJunction="4way_10" toJunction="3way_24"/>
<trip id="235" depart="82.438" fromJunction="4way_13" toJunction="4way_22"/>
<trip id="236" depart="82.7888" fromJunction="4way_19" toJunction="3way_34"/>
<trip id="237" depart="83.1396" fromJunction="3way_18" toJunction="4way_10"/>
<trip id="238" depart="83.4904" fromJunction="3way_34" toJunction="4way_13"/>
<trip id="239" depart="83.8412" fromJunction="3way_24" toJunction="3way_12"/>
<trip id="240" depart="84.19200000000001" fromJunction="4way_7" toJunction="3way_29"/>
<trip id="241" depart="84.5428" fromJunction="3way_31" toJunction="3way_33"/>
<trip id="242" depart="84.8936" fromJunction="4way_9" toJunction="4way_7"/>
<trip id="243" depart="85.2444" fromJunction="4way_16" toJunction="3way_32"/>
<trip id="244" depart="85.5952" fromJunction="3way_2" toJunction="4way_27"/>
<trip id="245" depart="85.946" fromJunction="3way_12" toJunction="3way_34"/>
<trip id="246" depart="86.2968" fromJunction="3way_31" toJunction="3way_4"/>
<trip id="247" depart="86.6476" fromJunction="4way_14" toJunction="4way_26"/>
<trip id="248" depart="86.9984" fromJunction="4way_20" toJunction="4way_25"/>
<trip id="249" depart="87.3492" fromJunction="3way_32" toJunction="3way_23"/>
<trip id="250" depart="87.7" fromJunction="4way_10" toJunction="4way_14"/>
<trip id="251" depart="88.0508" fromJunction="3way_33" toJunction="4way_13"/>
<trip id="252" depart="88.4016" fromJunction="4way_20" toJunction="3way_1"/>
<trip id="253" depart="88.7524" fromJunction="3way_31" toJunction="3way_1"/>
<trip id="254" depart="89.1032" fromJunction="4way_16" toJunction="4way_7"/>
<trip id="255" depart="89.454" fromJunction="3way_24" toJunction="3way_3"/>
<trip id="256" depart="89.8048" fromJunction="3way_32" toJunction="3way_1"/>
<trip id="257" depart="90.1556" fromJunction="3way_34" toJunction="4way_25"/>
<trip id="258" depart="90.5064" fromJunction="3way_4" toJunction="3way_23"/>
<trip id="259" depart="90.8572" fromJunction="4way_20" toJunction="4way_19"/>
<trip id="260" depart="91.208" fromJunction="4way_22" toJunction="4way_14"/>
<trip id="261" depart="91.5588" fromJunction="4way_8" toJunction="3way_1"/>
<trip id="262" depart="91.9096" fromJunction="4way_19" toJunction="4way_25"/>
<trip id="263" depart="92.2604" fromJunction="3way_1" toJunction="4way_22"/>
<trip id="264" depart="92.6112" fromJunction="4way_21" toJunction="4way_20"/>
<trip id="265" depart="92.962" fromJunction="3way_32" toJunction="4way_7"/>
<trip id="266" depart="93.3128" fromJunction="3way_4" toJunction="4way_15"/>
<trip id="267" depart="93.6636" fromJunction="4way_7" toJunction="3way_12"/>
<trip id="268" depart="94.0144" fromJunction="3way_3" toJunction="4way_20"/>
<trip id="269" depart="94.3652" fromJunction="3way_18" toJunction="3way_29"/>
<trip id="270" depart="94.716" fromJunction="4way_10" toJunction="4way_25"/>
<trip id="271" depart="95.0668" fromJunction="3way_11" toJunction="4way_25"/>
<trip id="272" depart="95.4176" fromJunction="4way_27" toJunction="4way_28"/>
<trip id="273" depart="95.7684" fromJunction="4way_16" toJunction="4way_7"/>
<trip id="274" depart="96.1192" fromJunction="4way_16" toJunction="4way_13"/>
<trip id="275" depart="96.47" fromJunction="4way_22" toJunction="4way_21"/>
<trip id="276" depart="96.8208" fromJunction="3way_2" toJunction="4way_16"/>
<trip id="277" depart="97.1716" fromJunction="3way_24" toJunction="3way_17"/>
<trip id="278" depart="97.5224" fromJunction="3way_33" toJunction="4way_22"/>
<trip id="279" depart="97.8732" fromJunction="4way_10" toJunction="3way_17"/>
<trip id="280" depart="98.224" fromJunction="4way_16" toJunction="3way_12"/>
<trip id="281" depart="98.5748" fromJunction="4way_14" toJunction="3way_17"/>
<trip id="282" depart="98.9256" fromJunction="3way_3" toJunction="3way_12"/>
<trip id="283" depart="99.2764" fromJunction="3way_29" toJunction="4way_20"/>
<trip id="284" depart="99.6272" fromJunction="4way_16" toJunction="3way_2"/>
<trip id="285" depart="99.978" fromJunction="4way_10" toJunction="4way_26"/>
<trip id="286" depart="100.3288" fromJunction="4way_7" toJunction="4way_14"/>
<trip id="287" depart="100.6796" fromJunction="4way_28" toJunction="3way_33"/>
<trip id="288" depart="101.0304" fromJunction="3way_6" toJunction="3way_31"/>
<trip id="289" depart="101.3812" fromJunction="4way_28" toJunction="3way_24"/>
<trip id="290" depart="101.732" fromJunction="3way_32" toJunction="3way_17"/>
<trip id="291" depart="102.0828" fromJunction="3way_3" toJunction="4way_14"/>
<trip id="292" depart="102.4336" fromJunction="3way_6" toJunction="4way_25"/>
<trip id="293" depart="102.7844" fromJunction="3way_29" toJunction="3way_33"/>
<trip id="294" depart="103.1352" fromJunction="3way_31" toJunction="4way_7"/>
<trip id="295" depart="103.486" fromJunction="3way_32" toJunction="3way_12"/>
<trip id="296" depart="103.8368" fromJunction="3way_11" toJunction="4way_28"/>
<trip id="297" depart="104.1876" fromJunction="3way_32" toJunction="3way_4"/>
<trip id="298" depart="104.5384" fromJunction="4way_14" toJunction="4way_19"/>
<trip id="299" depart="104.8892" fromJunction="4way_28" toJunction="3way_24"/>
<trip id="300" depart="105.24" fromJunction="4way_26" toJunction="3way_31"/>
<trip id="301" depart="105.5908" fromJunction="4way_21" toJunction="4way_8"/>
<trip id="302" depart="105.9416" fromJunction="4way_10" toJunction="4way_28"/>
<trip id="303" depart="106.2924" fromJunction="4way_20" toJunction="4way_9"/>
<trip id="304" depart="106.64320000000001" fromJunction="3way_11" toJunction="3way_32"/>
<trip id="305" depart="106.994" fromJunction="3way_29" toJunction="3way_3"/>
<trip id="306" depart="107.3448" fromJunction="4way_7" toJunction="3way_18"/>
<trip id="307" depart="107.6956" fromJunction="4way_22" toJunction="4way_9"/>
<trip id="308" depart="108.0464" fromJunction="4way_26" toJunction="4way_19"/>
<trip id="309" depart="108.3972" fromJunction="4way_16" toJunction="4way_27"/>
<trip id="310" depart="108.748" fromJunction="3way_24" toJunction="4way_28"/>
<trip id="311" depart="109.0988" fromJunction="3way_11" toJunction="3way_24"/>
<trip id="312" depart="109.4496" fromJunction="3way_4" toJunction="4way_27"/>
<trip id="313" depart="109.8004" fromJunction="4way_19" toJunction="3way_6"/>
<trip id="314" depart="110.1512" fromJunction="3way_17" toJunction="3way_29"/>
<trip id="315" depart="110.502" fromJunction="3way_2" toJunction="4way_27"/>
<trip id="316" depart="110.8528" fromJunction="3way_4" toJunction="3way_6"/>
<trip id="317" depart="111.2036" fromJunction="4way_28" toJunction="3way_12"/>
<trip id="318" depart="111.5544" fromJunction="4way_27" toJunction="3way_18"/>
<trip id="319" depart="111.9052" fromJunction="3way_34" toJunction="3way_4"/>
<trip id="320" depart="112.256" fromJunction="3way_31" toJunction="4way_14"/>
<trip id="321" depart="112.6068" fromJunction="4way_8" toJunction="4way_20"/>
<trip id="322" depart="112.9576" fromJunction="3way_18" toJunction="3way_24"/>
<trip id="323" depart="113.3084" fromJunction="3way_3" toJunction="4way_25"/>
<trip id="324" depart="113.6592" fromJunction="4way_8" toJunction="4way_21"/>
<trip id="325" depart="114.01" fromJunction="4way_13" toJunction="4way_26"/>
<trip id="326" depart="114.3608" fromJunction="3way_24" toJunction="3way_4"/>
<trip id="327" depart="114.7116" fromJunction="3way_32" toJunction="3way_24"/>
<trip id="328" depart="115.0624" fromJunction="4way_26" toJunction="3way_1"/>
<trip id="329" depart="115.4132" fromJunction="4way_25" toJunction="3way_4"/>
<trip id="330" depart="115.764" fromJunction="4way_8" toJunction="4way_20"/>
<trip id="331" depart="116.1148" fromJunction="3way_4" toJunction="4way_22"/>
<trip id="332" depart="116.4656" fromJunction="3way_1" toJunction="4way_27"/>
<trip id="333" depart="116.8164" fromJunction="3way_24" toJunction="4way_13"/>
<trip id="334" depart="117.1672" fromJunction="3way_31" toJunction="4way_7"/>
<trip id="335" depart="117.518" fromJunction="3way_1" toJunction="3way_23"/>
<trip id="336" depart="117.8688" fromJunction="4way_21" toJunction="4way_7"/>
<trip id="337" depart="118.2196" fromJunction="3way_29" toJunction="3way_31"/>
<trip id="338" depart="118.5704" fromJunction="3way_4" toJunction="3way_29"/>
<trip id="339" depart="118.9212" fromJunction="3way_3" toJunction="3way_34"/>
<trip id="340" depart="119.272" fromJunction="4way_27" toJunction="3way_3"/>
<trip id="341" depart="119.6228" fromJunction="4way_13" toJunction="3way_17"/>
<trip id="342" depart="119.9736" fromJunction="3way_12" toJunction="4way_9"/>
<trip id="343" depart="120.3244" fromJunction="3way_23" toJunction="3way_11"/>
<trip id="344" depart="120.6752" fromJunction="4way_7" toJunction="3way_18"/>
<trip id="345" depart="121.026" fromJunction="4way_15" toJunction="3way_31"/>
<trip id="346" depart="121.3768" fromJunction="4way_16" toJunction="4way_9"/>
<trip id="347" depart="121.7276" fromJunction="4way_10" toJunction="3way_1"/>
<trip id="348" depart="122.0784" fromJunction="4way_10" toJunction="3way_24"/>
<trip id="349" depart="122.4292" fromJunction="4way_28" toJunction="4way_20"/>
<trip id="350" depart="122.78" fromJunction="3way_31" toJunction="4way_9"/>
<trip id="351" depart="123.1308" fromJunction="3way_24" toJunction="4way_7"/>
<trip id="352" depart="123.4816" fromJunction="3way_34" toJunction="3way_31"/>
<trip id="353" depart="123.8324" fromJunction="4way_14" toJunction="3way_6"/>
<trip id="354" depart="124.1832" fromJunction="4way_7" toJunction="3way_34"/>
<trip id="355" depart="124.534" fromJunction="3way_17" toJunction="3way_4"/>
<trip id="356" depart="124.8848" fromJunction="4way_28" toJunction="3way_2"/>
<trip id="357" depart="125.2356" fromJunction="3way_17" toJunction="3way_1"/>
<trip id="358" depart="125.5864" fromJunction="3way_3" toJunction="4way_25"/>
<trip id="359" depart="125.9372" fromJunction="4way_26" toJunction="4way_10"/>
<trip id="360" depart="126.288" fromJunction="4way_7" toJunction="4way_22"/>
<trip id="361" depart="126.6388" fromJunction="4way_13" toJunction="3way_33"/>
<trip id="362" depart="126.9896" fromJunction="4way_7" toJunction="4way_16"/>
<trip id="363" depart="127.3404" fromJunction="4way_10" toJunction="3way_34"/>
<trip id="364" depart="127.6912" fromJunction="3way_1" toJunction="3way_31"/>
<trip id="365" depart="128.042" fromJunction="3way_32" toJunction="3way_29"/>
<trip id="366" depart="128.3928" fromJunction="3way_12" toJunction="4way_27"/>
<trip id="367" depart="128.7436" fromJunction="3way_32" toJunction="3way_12"/>
<trip id="368" depart="129.0944" fromJunction="4way_22" toJunction="4way_10"/>
<trip id="369" depart="129.4452" fromJunction="3way_24" toJunction="4way_28"/>
<trip id="370" depart="129.796" fromJunction="4way_15" toJunction="4way_22"/>
<trip id="371" depart="130.1468" fromJunction="3way_29" toJunction="4way_14"/>
<trip id="372" depart="130.4976" fromJunction="3way_17" toJunction="3way_23"/>
<trip id="373" depart="130.8484" fromJunction="3way_33" toJunction="4way_16"/>
<trip id="374" depart="131.1992" fromJunction="3way_6" toJunction="3way_12"/>
<trip id="375" depart="131.55" fromJunction="4way_27" toJunction="4way_9"/>
<trip id="376" depart="131.9008" fromJunction="3way_18" toJunction="3way_11"/>
<trip id="377" depart="132.2516" fromJunction="3way_17" toJunction="3way_4"/>
<trip id="378" depart="132.6024" fromJunction="3way_3" toJunction="3way_33"/>
<trip id="379" depart="132.9532" fromJunction="3way_4" toJunction="3way_18"/>
<trip id="380" depart="133.304" fromJunction="3way_29" toJunction="4way_19"/>
<trip id="381" depart="133.6548" fromJunction="3way_4" toJunction="4way_25"/>
<trip id="382" depart="134.0056" fromJunction="4way_16" toJunction="4way_28"/>
<trip id="383" depart="134.3564" fromJunction="3way_29" toJunction="3way_24"/>
<trip id="384" depart="134.7072" fromJunction="3way_6" toJunction="3way_34"/>