<routes xmlns:xsi="http://www.w3.org/2001/XMLSchema-instance" xsi:noNamespaceSchemaLocation="http://sumo.dlr.de/xsd/routes_file.xsd">
<trip id="0" depart="0.0" fromJunction="4way_24" toJunction="4way_36"/>
<trip id="1" depart="1.4285" fromJunction="4way_36" toJunction="4way_23"/>
<trip id="2" depart="2.857" fromJunction="4way_37" toJunction="3way_7"/>
<trip id="3" depart="4.285500000000001" fromJunction="4way_12" toJunction="3way_7"/>
<trip id="4" depart="5.714" fromJunction="3way_21" toJunction="4way_33"/>
<trip id="5" depart="7.1425" fromJunction="4way_29" toJunction="4way_11"/>
<trip id="6" depart="8.571000000000002" fromJunction="4way_19" toJunction="4way_9"/>
<trip id="7" depart="9.999500000000001" fromJunction="4way_25" toJunction="3way_1"/>
<trip id="8" depart="11.428" fromJunction="4way_39" toJunction="4way_11"/>
<trip id="9" depart="12.8565" fromJunction="4way_11" toJunction="4way_40"/>
<trip id="10" depart="14.285" fromJunction="4way_11" toJunction="4way_8"/>
<trip id="11" depart="15.713500000000002" fromJunction="4way_30" toJunction="3way_13"/>
<trip id="12" depart="17.142000000000003" fromJunction="4way_26" toJunction="3way_20"/>
<trip id="13" depart="18.570500000000003" fromJunction="3way_14" toJunction="4way_29"/>
<trip id="14" depart="19.999000000000002" fromJunction="4way_38" toJunction="3way_46"/>
<trip id="15" depart="21.427500000000002" fromJunction="4way_9" toJunction="4way_8"/>
<trip id="16" depart="22.856" fromJunction="4way_23" toJunction="3way_1"/>
<trip id="17" depart="24.2845" fromJunction="4way_10" toJunction="4way_26"/>
<trip id="18" depart="25.713" fromJunction="3way_7" toJunction="3way_28"/>
<trip id="19" depart="27.1415" fromJunction="3way_3" toJunction="4way_17"/>
<trip id="20" depart="28.57" fromJunction="3way_13" toJunction="3way_41"/>
<trip id="21" depart="29.998500000000003" fromJunction="3way_28" toJunction="3way_43"/>
<trip id="22" depart="31.427000000000003" fromJunction="3way_7" toJunction="4way_9"/>
<trip id="23" depart="32.8555" fromJunction="3way_5" toJunction="4way_40"/>
<trip id="24" depart="34.284000000000006" fromJunction="3way_27" toJunction="3way_41"/>
<trip id="25" depart="35.712500000000006" fromJunction="3way_46" toJunction="4way_37"/>
<trip id="26" depart="37.141000000000005" fromJunction="3way_47" toJunction="4way_8"/>
<trip id="27" depart="38.569500000000005" fromJunction="3way_5" toJunction="3way_27"/>
<trip id="28" depart="39.998000000000005" fromJunction="3way_20" toJunction="4way_37"/>
<trip id="29" depart="41.426500000000004" fromJunction="3way_28" toJunction="3way_34"/>
<trip id="30" depart="42.855000000000004" fromJunction="3way_5" toJunction="4way_18"/>
<trip id="31" depart="44.283500000000004" fromJunction="3way_5" toJunction="4way_25"/>
<trip id="32" depart="45.712" fromJunction="4way_15" toJunction="4way_33"/>
<trip id="33" depart="47.1405" fromJunction="4way_23" toJunction="4way_33"/>
<trip id="34" depart="48.569" fromJunction="3way_2" toJunction="4way_31"/>
<trip id="35" depart="49.9975" fromJunction="3way_13" toJunction="3way_45"/>
<trip id="36" depart="51.426" fromJunction="3way_13" toJunction="3way_44"/>
<trip id="37" depart="52.8545" fromJunction="3way_14" toJunction="3way_43"/>
<trip id="38" depart="54.283" fromJunction="4way_17" toJunction="3way_3"/>
<trip id="39" depart="55.7115" fromJunction="3way_46" toJunction="4way_9"/>
<trip id="40" depart="57.14" fromJunction="3way_5" toJunction="4way_29"/>
<trip id="41" depart="58.56850000000001" fromJunction="4way_19" toJunction="4way_9"/>
<trip id="42" depart="59.99700000000001" fromJunction="4way_10" toJunction="3way_43"/>
<trip id="43" depart="61.42550000000001" fromJunction="4way_24" toJunction="3way_13"/>
<trip id="44" depart="62.854000000000006" fromJunction="3way_34" toJunction="3way_44"/>
<trip id="45" depart="64.2825" fromJunction="3way_1" toJunction="4way_16"/>
<trip id="46" depart="65.711" fromJunction="3way_1" toJunction="4way_25"/>
<trip id="47" depart="67.1395" fromJunction="3way_45" toJunction="4way_10"/>
<trip id="48" depart="68.56800000000001" fromJunction="4way_33" toJunction="4way_31"/>
<trip id="49" depart="69.99650000000001" fromJunction="4way_9" toJunction="3way_46"/>
<trip id="50" depart="71.42500000000001" fromJunction="4way_9" toJunction="4way_16"/>
<trip id="51" depart="72.85350000000001" fromJunction="4way_26" toJunction="3way_47"/>
<trip id="52" depart="74.28200000000001" fromJunction="4way_32" toJunction="4way_8"/>
<trip id="53" depart="75.71050000000001" fromJunction="3way_44" toJunction="4way_17"/>
<trip id="54" depart="77.13900000000001" fromJunction="3way_21" toJunction="4way_18"/>
<trip id="55" depart="78.56750000000001" fromJunction="4way_16" toJunction="4way_39"/>
<trip id="56" depart="79.99600000000001" fromJunction="4way_17" toJunction="4way_39"/>
<trip id="57" depart="81.42450000000001" fromJunction="4way_22" toJunction="4way_24"/>
<trip id="58" depart="82.85300000000001" fromJunction="4way_30" toJunction="4way_33"/>
<trip id="59" depart="84.28150000000001" fromJunction="4way_23" toJunction="3way_7"/>
<trip id="60" depart="85.71000000000001" fromJunction="3way_44" toJunction="3way_1"/>
<trip id="61" depart="87.13850000000001" fromJunction="3way_44" toJunction="4way_37"/>
<trip id="62" depart="88.56700000000001" fromJunction="3way_7" toJunction="4way_23"/>
<trip id="63" depart="89.9955" fromJunction="3way_44" toJunction="3way_20"/>
<trip id="64" depart="91.424" fromJunction="4way_16" toJunction="4way_9"/>
<trip id="65" depart="92.8525" fromJunction="4way_37" toJunction="4way_9"/>
<trip id="66" depart="94.281" fromJunction="3way_7" toJunction="4way_37"/>
<trip id="67" depart="95.7095" fromJunction="3way_28" toJunction="4way_12"/>
<trip id="68" depart="97.138" fromJunction="4way_12" toJunction="3way_7"/>
<trip id="69" depart="98.5665" fromJunction="4way_17" toJunction="4way_18"/>
<trip id="70" depart="99.995" fromJunction="4way_19" toJunction="3way_5"/>
<trip id="71" depart="101.4235" fromJunction="4way_40" toJunction="4way_24"/>
<trip id="72" depart="102.852" fromJunction="4way_39" toJunction="3way_20"/>
<trip id="73" depart="104.2805" fromJunction="4way_23" toJunction="3way_27"/>
<trip id="74" depart="105.709" fromJunction="4way_32" toJunction="3way_13"/>
<trip id="75" depart="107.1375" fromJunction="4way_9" toJunction="4way_18"/>
<trip id="76" depart="108.566" fromJunction="3way_4" toJunction="3way_14"/>
<trip id="77" depart="109.9945" fromJunction="4way_8" toJunction="4way_17"/>
<trip id="78" depart="111.423" fromJunction="4way_32" toJunction="4way_24"/>
<trip id="79" depart="112.8515" fromJunction="4way_32" toJunction="4way_33"/>
<trip id="80" depart="114.28" fromJunction="3way_28" toJunction="3way_1"/>
<trip id="81" depart="115.70850000000002" fromJunction="3way_27" toJunction="4way_24"/>
<trip id="82" depart="117.13700000000001" fromJunction="3way_3" toJunction="4way_29"/>
<trip id="83" depart="118.56550000000001" fromJunction="3way_1" toJunction="3way_34"/>
<trip id="84" depart="119.99400000000001" fromJunction="3way_47" toJunction="4way_11"/>
<trip id="85" depart="121.42250000000001" fromJunction="4way_19" toJunction="3way_35"/>
<trip id="86" depart="122.85100000000001" fromJunction="3way_2" toJunction="4way_17"/>
<trip id="87" depart="124.27950000000001" fromJunction="4way_23" toJunction="3way_27"/>
<trip id="88" depart="125.70800000000001" fromJunction="3way_47" toJunction="4way_9"/>
<trip id="89" depart="127.13650000000001" fromJunction="4way_23" toJunction="4way_26"/>
<trip id="90" depart="128.565" fromJunction="4way_16" toJunction="4way_36"/>
<trip id="91" depart="129.9935" fromJunction="3way_43" toJunction="4way_24"/>
<trip id="92" depart="131.422" fromJunction="3way_41" toJunction="3way_21"/>
<trip id="93" depart="132.8505" fromJunction="4way_26" toJunction="3way_34"/>
<trip id="94" depart="134.279" fromJunction="4way_22" toJunction="4way_31"/>
<trip id="95" depart="135.7075" fromJunction="3way_46" toJunction="3way_47"/>
<trip id="96" depart="137.13600000000002" fromJunction="3way_7" toJunction="3way_3"/>
<trip id="97" depart="138.5645" fromJunction="4way_17" toJunction="3way_43"/>
<trip id="98" depart="139.99300000000002" fromJunction="3way_34" toJunction="3way_28"/>
<trip id="99" depart="141.4215" fromJunction="3way_4" toJunction="3way_2"/>
<trip id="100" depart="142.85000000000002" fromJunction="4way_8" toJunction="4way_10"/>
<trip id="101" depart="144.2785" fromJunction="4way_12" toJunction="4way_36"/>
<trip id="102" depart="145.70700000000002" fromJunction="3way_41" toJunction="4way_40"/>
<trip id="103" depart="147.1355" fromJunction="3way_46" toJunction="4way_37"/>
<trip id="104" depart="148.56400000000002" fromJunction="4way_38" toJunction="3way_1"/>
<trip id="105" depart="149.9925" fromJunction="3way_21" toJunction="3way_43"/>
<trip id="106" depart="151.42100000000002" fromJunction="4way_25" toJunction="4way_16"/>
<trip id="107" depart="152.8495" fromJunction="4way_39" toJunction="4way_30"/>
<trip id="108" depart="154.27800000000002" fromJunction="4way_11" toJunction="3way_45"/>
<trip id="109" depart="155.7065" fromJunction="4way_26" toJunction="3way_34"/>
<trip id="110" depart="157.13500000000002" fromJunction="3way_41" toJunction="4way_10"/>
<trip id="111" depart="158.5635" fromJunction="4way_24" toJunction="4way_26"/>
<trip id="112" depart="159.99200000000002" fromJunction="3way_41" toJunction="3way_46"/>
<trip id="113" depart="161.4205" fromJunction="3way_2" toJunction="4way_29"/>
<trip id="114" depart="162.84900000000002" fromJunction="3way_7" toJunction="3way_41"/>
<trip id="115" depart="164.2775" fromJunction="4way_8" toJunction="3way_28"/>
<trip id="116" depart="165.70600000000002" fromJunction="4way_16" toJunction="3way_45"/>
<trip id="117" depart="167.1345" fromJunction="3way_13" toJunction="4way_32"/>
<trip id="118" depart="168.56300000000002" fromJunction="3way_13" toJunction="4way_29"/>
<trip id="119" depart="169.9915" fromJunction="3way_21" toJunction="4way_24"/>
<trip id="120" depart="171.42000000000002" fromJunction="3way_34" toJunction="4way_9"/>
<trip id="121" depart="172.8485" fromJunction="4way_15" toJunction="3way_20"/>
<trip id="122" depart="174.27700000000002" fromJunction="4way_26" toJunction="3way_28"/>
<trip id="123" depart="175.7055" fromJunction="4way_31" toJunction="4way_38"/>
<trip id="124" depart="177.13400000000001" fromJunction="3way_4" toJunction="4way_12"/>
<trip id="125" depart="178.5625" fromJunction="4way_16" toJunction="4way_36"/>
<trip id="126" depart="179.991" fromJunction="3way_44" toJunction="4way_33"/>
<trip id="127" depart="181.4195" fromJunction="3way_5" toJunction="3way_47"/>
<trip id="128" depart="182.848" fromJunction="4way_19" toJunction="3way_1"/>
<trip id="129" depart="184.27650000000003" fromJunction="4way_11" toJunction="4way_10"/>
<trip id="130" depart="185.705" fromJunction="4way_16" toJunction="3way_45"/>
<trip id="131" depart="187.13350000000003" fromJunction="4way_15" toJunction="3way_3"/>
<trip id="132" depart="188.562" fromJunction="4way_39" toJunction="4way_33"/>
<trip id="133" depart="189.99050000000003" fromJunction="4way_33" toJunction="3way_35"/>
<trip id="134" depart="191.419" fromJunction="4way_26" toJunction="3way_47"/>
<trip id="135" depart="192.84750000000003" fromJunction="4way_11" toJunction="4way_26"/>
<trip id="136" depart="194.276" fromJunction="4way_39" toJunction="4way_30"/>
<trip id="137" depart="195.70450000000002" fromJunction="4way_32" toJunction="3way_44"/>
<trip id="138" depart="197.133" fromJunction="3way_1" toJunction="4way_23"/>
<trip id="139" depart="198.56150000000002" fromJunction="3way_20" toJunction="3way_35"/>
<trip id="140" depart="199.99" fromJunction="4way_15" toJunction="4way_40"/>
<trip id="141" depart="201.41850000000002" fromJunction="4way_30" toJunction="4way_22"/>
<trip id="142" depart="202.847" fromJunction="3way_20" toJunction="3way_28"/>
<trip id="143" depart="204.27550000000002" fromJunction="3way_34" toJunction="4way_18"/>
<trip id="144" depart="205.704" fromJunction="3way_47" toJunction="4way_29"/>
<trip id="145" depart="207.13250000000002" fromJunction="4way_32" toJunction="3way_5"/>
<trip id="146" depart="208.561" fromJunction="4way_38" toJunction="4way_12"/>
<trip id="147" depart="209.98950000000002" fromJunction="3way_4" toJunction="3way_43"/>
<trip id="148" depart="211.418" fromJunction="3way_47" toJunction="3way_14"/>
<trip id="149" depart="212.84650000000002" fromJunction="3way_3" toJunction="3way_13"/>
<trip id="150" depart="214.275" fromJunction="3way_1" toJunction="4way_24"/>
<trip id="151" depart="215.70350000000002" fromJunction="3way_20" toJunction="4way_38"/>
<trip id="152" depart="217.132" fromJunction="3way_5" toJunction="3way_4"/>
<trip id="153" depart="218.56050000000002" fromJunction="3way_46" toJunction="4way_10"/>
<trip id="154" depart="219.989" fromJunction="4way_9" toJunction="3way_14"/>
<trip id="155" depart="221.41750000000002" fromJunction="4way_24" toJunction="4way_32"/>
<trip id="156" depart="222.846" fromJunction="3way_13" toJunction="3way_45"/>
<trip id="157" depart="224.27450000000002" fromJunction="3way_44" toJunction="3way_3"/>
<trip id="158" depart="225.703" fromJunction="4way_8" toJunction="3way_46"/>
<trip id="159" depart="227.13150000000002" fromJunction="4way_17" toJunction="4way_10"/>
<trip id="160" depart="228.56" fromJunction="3way_21" toJunction="3way_45"/>
<trip id="161" depart="229.98850000000002" fromJunction="4way_11" toJunction="3way_34"/>
<trip id="162" depart="231.41700000000003" fromJunction="4way_17" toJunction="3way_3"/>
<trip id="163" depart="232.84550000000002" fromJunction="4way_38" toJunction="4way_11"/>
<trip id="164" depart="234.27400000000003" fromJunction="3way_28" toJunction="3way_46"/>
<trip id="165" depart="235.70250000000001" fromJunction="3way_45" toJunction="4way_16"/>
<trip id="166" depart="237.13100000000003" fromJunction="3way_34" toJunction="3way_28"/>
<trip id="167" depart="238.5595" fromJunction="3way_3" toJunction="4way_8"/>
<trip id="168" depart="239.98800000000003" fromJunction="3way_4" toJunction="4way_11"/>
<trip id="169" depart="241.4165" fromJunction="3way_44" toJunction="4way_29"/>
<trip id="170" depart="242.84500000000003" fromJunction="4way_33" toJunction="4way_9"/>
<trip id="171" depart="244.2735" fromJunction="3way_2" toJunction="4way_37"/>
<trip id="172" depart="245.70200000000003" fromJunction="4way_22" toJunction="3way_7"/>
<trip id="173" depart="247.1305" fromJunction="4way_10" toJunction="4way_36"/>
<trip id="174" depart="248.55900000000003" fromJunction="3way_13" toJunction="3way_45"/>
<trip id="175" depart="249.9875" fromJunction="4way_33" toJunction="3way_21"/>
<trip id="176" depart="251.41600000000003" fromJunction="4way_12" toJunction="3way_34"/>
<trip id="177" depart="252.8445" fromJunction="4way_8" toJunction="4way_36"/>
<trip id="178" depart="254.27300000000002" fromJunction="4way_8" toJunction="4way_39"/>
<trip id="179" depart="255.7015" fromJunction="3way_21" toJunction="4way_24"/>
<trip id="180" depart="257.13" fromJunction="4way_17" toJunction="4way_12"/>
<trip id="181" depart="258.55850000000004" fromJunction="3way_43" toJunction="4way_17"/>
<trip id="182" depart="259.987" fromJunction="4way_30" toJunction="4way_38"/>
<trip id="183" depart="261.4155" fromJunction="3way_27" toJunction="3way_47"/>
<trip id="184" depart="262.844" fromJunction="4way_33" toJunction="4way_11"/>
<trip id="185" depart="264.27250000000004" fromJunction="4way_16" toJunction="4way_8"/>
<trip id="186" depart="265.701" fromJunction="4way_8" toJunction="4way_32"/>
<trip id="187" depart="267.1295" fromJunction="4way_9" toJunction="4way_26"/>
<trip id="188" depart="268.558" fromJunction="4way_12" toJunction="4way_18"/>
<trip id="189" depart="269.98650000000004" fromJunction="3way_27" toJunction="4way_18"/>
<trip id="190" depart="271.415" fromJunction="3way_21" toJunction="4way_30"/>
<trip id="191" depart="272.8435" fromJunction="3way_7" toJunction="3way_3"/>
<trip id="192" depart="274.27200000000005" fromJunction="4way_32" toJunction="3way_46"/>
<trip id="193" depart="275.70050000000003" fromJunction="4way_33" toJunction="3way_2"/>
<trip id="194" depart="277.129" fromJunction="3way_28" toJunction="3way_35"/>
<trip id="195" depart="278.5575" fromJunction="3way_34" toJunction="3way_1"/>
<trip id="196" depart="279.98600000000005" fromJunction="4way_19" toJunction="3way_14"/>
<trip id="197" depart="281.41450000000003" fromJunction="4way_26" toJunction="3way_5"/>
<trip id="198" depart="282.843" fromJunction="4way_8" toJunction="4way_39"/>
<trip id="199" depart="284.2715" fromJunction="3way_47" toJunction="3way_43"/>
<trip id="200" depart="285.70000000000005" fromJunction="3way_2" toJunction="4way_23"/>
<trip id="201" depart="287.12850000000003" fromJunction="3way_7" toJunction="3way_1"/>
<trip id="202" depart="288.557" fromJunction="3way_46" toJunction="3way_4"/>
<trip id="203" depart="289.9855" fromJunction="3way_46" toJunction="3way_41"/>
<trip id="204" depart="291.41400000000004" fromJunction="3way_1" toJunction="3way_13"/>
<trip id="205" depart="292.84250000000003" fromJunction="4way_23" toJunction="3way_13"/>
<trip id="206" depart="294.271" fromJunction="4way_40" toJunction="4way_33"/>
<trip id="207" depart="295.6995" fromJunction="3way_27" toJunction="3way_14"/>
<trip id="208" depart="297.12800000000004" fromJunction="4way_22" toJunction="4way_30"/>
<trip id="209" depart="298.5565" fromJunction="3way_3" toJunction="4way_40"/>
<trip id="210" depart="299.985" fromJunction="3way_45" toJunction="4way_11"/>
<trip id="211" depart="301.4135" fromJunction="4way_37" toJunction="3way_47"/>
<trip id="212" depart="302.84200000000004" fromJunction="4way_37" toJunction="3way_46"/>
<trip id="213" depart="304.2705" fromJunction="3way_7" toJunction="4way_29"/>
<trip id="214" depart="305.699" fromJunction="3way_45" toJunction="4way_36"/>
<trip id="215" depart="307.1275" fromJunction="3way_14" toJunction="4way_17"/>
<trip id="216" depart="308.55600000000004" fromJunction="4way_25" toJunction="3way_28"/>
<trip id="217" depart="309.9845" fromJunction="3way_3" toJunction="4way_19"/>
<trip id="218" depart="311.413" fromJunction="3way_35" toJunction="3way_47"/>
<trip id="219" depart="312.8415" fromJunction="4way_40" toJunction="4way_18"/>
<trip id="220" depart="314.27000000000004" fromJunction="4way_12" toJunction="4way_33"/>
<trip id="221" depart="315.6985" fromJunction="4way_40" toJunction="3way_44"/>
<trip id="222" depart="317.127" fromJunction="3way_5" toJunction="3way_46"/>
<trip id="223" depart="318.5555" fromJunction="3way_47" toJunction="4way_26"/>
<trip id="224" depart="319.98400000000004" fromJunction="3way_3" toJunction="4way_17"/>
<trip id="225" depart="321.4125" fromJunction="4way_39" toJunction="4way_24"/>
<trip id="226" depart="322.841" fromJunction="3way_21" toJunction="3way_45"/>
<trip id="227" depart="324.26950000000005" fromJunction="4way_31" toJunction="3way_28"/>
<trip id="228" depart="325.69800000000004" fromJunction="3way_27" toJunction="3way_47"/>
<trip id="229" depart="327.1265" fromJunction="3way_44" toJunction="4way_8"/>
<trip id="230" depart="328.555" fromJunction="3way_47" toJunction="4way_25"/>
<trip id="231" depart="329.98350000000005" fromJunction="4way_26" toJunction="4way_22"/>
<trip id="232" depart="331.41200000000003" fromJunction="4way_39" toJunction="4way_30"/>
<trip id="233" depart="332.8405" fromJunction="4way_31" toJunction="4way_26"/>
<trip id="234" depart="334.269" fromJunction="4way_33" toJunction="4way_17"/>
<trip id="235" depart="335.69750000000005" fromJunction="4way_8" toJunction="4way_40"/>
<trip id="236" depart="337.12600000000003" fromJunction="3way_44" toJunction="3way_4"/>
<trip id="237" depart="338.5545" fromJunction="3way_14" toJunction="3way_20"/>
<trip id="238" depart="339.983" fromJunction="4way_23" toJunction="3way_13"/>
<trip id="239" depart="341.41150000000005" fromJunction="4way_12" toJunction="3way_21"/>
<trip id="240" depart="342.84000000000003" fromJunction="4way_36" toJunction="4way_33"/>
<trip id="241" depart="344.2685" fromJunction="4way_16" toJunction="3way_45"/>
<trip id="242" depart="345.697" fromJunction="3way_14" toJunction="4way_12"/>
<trip id="243" depart="347.12550000000005" fromJunction="3way_45" toJunction="4way_36"/>
<trip id="244" depart="348.55400000000003" fromJunction="3way_14" toJunction="4way_8"/>
<trip id="245" depart="349.9825" fromJunction="4way_22" toJunction="3way_46"/>
<trip id="246" depart="351.411" fromJunction="3way_28" toJunction="3way_44"/>
<trip id="247" depart="352.83950000000004" fromJunction="4way_31" toJunction="4way_29"/>
<trip id="248" depart="354.26800000000003" fromJunction="4way_19" toJunction="3way_35"/>
<trip id="249" depart="355.6965" fromJunction="3way_3" toJunction="4way_32"/>
<trip id="250" depart="357.125" fromJunction="4way_8" toJunction="3way_46"/>
<trip id="251" depart="358.55350000000004" fromJunction="3way_35" toJunction="3way_5"/>
<trip id="252" depart="359.982" fromJunction="4way_10" toJunction="4way_31"/>
<trip id="253" depart="361.4105" fromJunction="4way_17" toJunction="4way_30"/>
<trip id="254" depart="362.839" fromJunction="3way_35" toJunction="3way_41"/>
<trip id="255" depart="364.26750000000004" fromJunction="4way_39" toJunction="4way_10"/>
<trip id="256" depart="365.696" fromJunction="3way_45" toJunction="4way_36"/>
<trip id="257" depart="367.1245" fromJunction="4way_17" toJunction="3way_2"/>
<trip id="258" depart="368.55300000000005" fromJunction="3way_28" toJunction="3way_1"/>
<trip id="259" depart="369.98150000000004" fromJunction="4way_19" toJunction="4way_29"/>
<trip id="260" depart="371.41" fromJunction="3way_14" toJunction="3way_5"/>
<trip id="261" depart="372.8385" fromJunction="3way_35" toJunction="3way_2"/>
<trip id="262" depart="374.26700000000005" fromJunction="3way_45" toJunction="4way_30"/>
<trip id="263" depart="375.69550000000004" fromJunction="3way_13" toJunction="3way_41"/>
<trip id="264" depart="377.124" fromJunction="4way_17" toJunction="4way_9"/>
<trip id="265" depart="378.5525" fromJunction="4way_26" toJunction="4way_10"/>
<trip id="266" depart="379.98100000000005" fromJunction="4way_37" toJunction="3way_1"/>
<trip id="267" depart="381.40950000000004" fromJunction="4way_16" toJunction="4way_23"/>
<trip id="268" depart="382.838" fromJunction="3way_1" toJunction="4way_33"/>
<trip id="269" depart="384.2665" fromJunction="4way_18" toJunction="4way_17"/>
<trip id="270" depart="385.69500000000005" fromJunction="3way_35" toJunction="4way_22"/>
<trip id="271" depart="387.12350000000004" fromJunction="3way_5" toJunction="4way_11"/>
<trip id="272" depart="388.552" fromJunction="4way_29" toJunction="3way_7"/>
<trip id="273" depart="389.9805" fromJunction="3way_5" toJunction="4way_17"/>
<trip id="274" depart="391.40900000000005" fromJunction="3way_14" toJunction="3way_47"/>
<trip id="275" depart="392.83750000000003" fromJunction="4way_39" toJunction="4way_30"/>
<trip id="276" depart="394.266" fromJunction="3way_20" toJunction="4way_23"/>
<trip id="277" depart="395.6945" fromJunction="4way_39" toJunction="4way_40"/>
<trip id="278" depart="397.12300000000005" fromJunction="4way_19" toJunction="4way_22"/>
<trip id="279" depart="398.55150000000003" fromJunction="4way_19" toJunction="4way_36"/>
<trip id="280" depart="399.98" fromJunction="4way_33" toJunction="4way_25"/>
<trip id="281" depart="401.4085" fromJunction="3way_2" toJunction="4way_19"/>
<trip id="282" depart="402.83700000000005" fromJunction="3way_21" toJunction="3way_27"/>
<trip id="283" depart="404.26550000000003" fromJunction="3way_44" toJunction="4way_26"/>
<trip id="284" depart="405.694" fromJunction="4way_39" toJunction="3way_27"/>
<trip id="285" depart="407.1225" fromJunction="4way_12" toJunction="4way_8"/>
<trip id="286" depart="408.55100000000004" fromJunction="4way_37" toJunction="3way_27"/>
<trip id="287" depart="409.97950000000003" fromJunction="3way_4" toJunction="3way_7"/>
<trip id="288" depart="411.408" fromJunction="3way_46" toJunction="4way_17"/>
<trip id="289" depart="412.83650000000006" fromJunction="3way_3" toJunction="3way_2"/>
<trip id="290" depart="414.26500000000004" fromJunction="4way_12" toJunction="3way_3"/>
<trip id="291" depart="415.69350000000003" fromJunction="4way_12" toJunction="4way_31"/>
<trip id="292" depart="417.122" fromJunction="4way_29" toJunction="4way_10"/>
<trip id="293" depart="418.55050000000006" fromJunction="4way_40" toJunction="3way_44"/>
<trip id="294" depart="419.97900000000004" fromJunction="4way_15" toJunction="3way_28"/>
<trip id="295" depart="421.4075" fromJunction="4way_40" toJunction="3way_21"/>
<trip id="296" depart="422.836" fromJunction="3way_43" toJunction="3way_27"/>
<trip id="297" depart="424.26450000000006" fromJunction="3way_3" toJunction="4way_10"/>
<trip id="298" depart="425.69300000000004" fromJunction="4way_15" toJunction="4way_23"/>
<trip id="299" depart="427.1215" fromJunction="3way_47" toJunction="3way_45"/>
<trip id="300" depart="428.55" fromJunction="3way_28" toJunction="4way_29"/>
<trip id="301" depart="429.97850000000005" fromJunction="3way_35" toJunction="4way_8"/>
<trip id="302" depart="431.40700000000004" fromJunction="3way_20" toJunction="4way_33"/>
<trip id="303" depart="432.8355" fromJunction="3way_35" toJunction="3way_5"/>
<trip id="304" depart="434.264" fromJunction="4way_37" toJunction="4way_16"/>
<trip id="305" depart="435.69250000000005" fromJunction="4way_40" toJunction="3way_21"/>
<trip id="306" depart="437.12100000000004" fromJunction="4way_24" toJunction="3way_35"/>
<trip id="307" depart="438.5495" fromJunction="4way_18" toJunction="4way_30"/>
<trip id="308" depart="439.978" fromJunction="4way_12" toJunction="4way_33"/>
<trip id="309" depart="441.40650000000005" fromJunction="4way_17" toJunction="4way_38"/>
<trip id="310" depart="442.83500000000004" fromJunction="3way_20" toJunction="3way_35"/>
<trip id="311" depart="444.2635" fromJunction="3way_47" toJunction="3way_3"/>
<trip id="312" depart="445.692" fromJunction="4way_29" toJunction="3way_7"/>
<trip id="313" depart="447.12050000000005" fromJunction="4way_33" toJunction="4way_38"/>
<trip id="314" depart="448.54900000000004" fromJunction="3way_5" toJunction="3way_13"/>
<trip id="315" depart="449.9775" fromJunction="4way_31" toJunction="4way_16"/>
<trip id="316" depart="451.406" fromJunction="4way_26" toJunction="4way_32"/>
<trip id="317" depart="452.83450000000005" fromJunction="3way_21" toJunction="4way_40"/>
<trip id="318" depart="454.26300000000003" fromJunction="3way_20" toJunction="3way_21"/>
<trip id="319" depart="455.6915" fromJunction="4way_37" toJunction="4way_10"/>
<trip id="320" depart="457.12" fromJunction="3way_5" toJunction="4way_32"/>
<trip id="321" depart="458.54850000000005" fromJunction="4way_16" toJunction="4way_22"/>
<trip id="322" depart="459.97700000000003" fromJunction="3way_27" toJunction="3way_47"/>
<trip id="323" depart="461.4055" fromJunction="3way_3" toJunction="4way_32"/>
<trip id="324" depart="462.83400000000006" fromJunction="3way_13" toJunction="4way_15"/>
<trip id="325" depart="464.26250000000005" fromJunction="4way_40" toJunction="4way_8"/>
<trip id="326" depart="465.69100000000003" fromJunction="4way_32" toJunction="3way_7"/>
<trip id="327" depart="467.1195" fromJunction="3way_45" toJunction="3way_13"/>
<trip id="328" depart="468.54800000000006" fromJunction="3way_21" toJunction="3way_14"/>
<trip id="329" depart="469.97650000000004" fromJunction="3way_35" toJunction="4way_10"/>
<trip id="330" depart="471.40500000000003" fromJunction="4way_30" toJunction="4way_24"/>
<trip id="331" depart="472.8335" fromJunction="3way_7" toJunction="3way_21"/>
<trip id="332" depart="474.26200000000006" fromJunction="3way_4" toJunction="4way_23"/>
<trip id="333" depart="475.69050000000004" fromJunction="4way_37" toJunction="4way_25"/>
<trip id="334" depart="477.119" fromJunction="4way_36" toJunction="4way_24"/>
<trip id="335" depart="478.5475" fromJunction="3way_14" toJunction="3way_5"/>
<trip id="336" depart="479.97600000000006" fromJunction="3way_43" toJunction="3way_14"/>
<trip id="337" depart="481.40450000000004" fromJunction="4way_31" toJunction="3way_2"/>
<trip id="338" depart="482.833" fromJunction="4way_23" toJunction="3way_5"/>
<trip id="339" depart="484.2615" fromJunction="4way_30" toJunction="4way_17"/>
<trip id="340" depart="485.69000000000005" fromJunction="3way_5" toJunction="4way_33"/>
<trip id="341" depart="487.11850000000004" fromJunction="3way_2" toJunction="4way_39"/>
<trip id="342" depart="488.547" fromJunction="3way_14" toJunction="4way_36"/>
<trip id="343" depart="489.9755" fromJunction="3way_28" toJunction="4way_29"/>
<trip id="344" depart="491.40400000000005" fromJunction="3way_1" toJunction="3way_34"/>
<trip id="345" depart="492.83250000000004" fromJunction="4way_25" toJunction="4way_29"/>
<trip id="346" depart="494.261" fromJunction="3way_47" toJunction="3way_28"/>
<trip id="347" depart="495.6895" fromJunction="3way_5" toJunction="3way_41"/>
<trip id="348" depart="497.11800000000005" fromJunction="3way_3" toJunction="3way_46"/>
<trip id="349" depart="498.54650000000004" fromJunction="4way_32" toJunction="3way_3"/>
<trip id="350" depart="499.975" fromJunction="4way_9" toJunction="3way_27"/>
<trip id="351" depart="501.4035" fromJunction="4way_8" toJunction="4way_38"/>
<trip id="352" depart="502.83200000000005" fromJunction="3way_34" toJunction="3way_20"/>
<trip id="353" depart="504.26050000000004" fromJunction="4way_29" toJunction="3way_7"/>
<trip id="354" depart="505.689" fromJunction="4way_11" toJunction="3way_35"/>
<trip id="355" depart="507.11750000000006" fromJunction="4way_19" toJunction="4way_31"/>
<trip id="356" depart="508.54600000000005" fromJunction="4way_12" toJunction="3way_2"/>
<trip id="357" depart="509.97450000000003" fromJunction="4way_39" toJunction="3way_21"/>
<trip id="358" depart="511.403" fromJunction="4way_40" toJunction="4way_17"/>
<trip id="359" depart="512.8315" fromJunction="3way_28" toJunction="4way_38"/>
<trip id="360" depart="514.26" fromJunction="3way_28" toJunction="4way_22"/>