<routes xmlns:xsi="http://www.w3.org/2001/XMLSchema-instance" xsi:noNamespaceSchemaLocation="http://sumo.dlr.de/xsd/routes_file.xsd">
<trip id="0" depart="0.0" fromJunction="4way_67" toJunction="4way_12"/>
<trip id="1" depart="0.1587" fromJunction="4way_65" toJunction="4way_48"/>
<trip id="2" depart="0.3174" fromJunction="4way_13" toJunction="4way_46"/>
<trip id="3" depart="0.4761" fromJunction="4way_60" toJunction="4way_55"/>
<trip id="4" depart="0.6348" fromJunction="4way_19" toJunction="4way_52"/>
<trip id="5" depart="0.7935000000000001" fromJunction="4way_56" toJunction="4way_50"/>
<trip id="6" depart="0.9522" fromJunction="4way_25" toJunction="4way_21"/>
<trip id="7" depart="1.1109" fromJunction="3way_7" toJunction="3way_6"/>
<trip id="8" depart="1.2696" fromJunction="4way_24" toJunction="3way_2"/>
<trip id="9" depart="1.4283000000000001" fromJunction="4way_42" toJunction="4way_41"/>
<trip id="10" depart="1.5870000000000002" fromJunction="4way_59" toJunction="4way_61"/>
<trip id="11" depart="1.7457" fromJunction="4way_50" toJunction="4way_11"/>
<trip id="12" depart="1.9044" fromJunction="4way_13" toJunction="3way_35"/>
<trip id="13" depart="2.0631" fromJunction="4way_34" toJunction="3way_53"/>
<trip id="14" depart="2.2218" fromJunction="4way_37" toJunction="4way_56"/>
<trip id="15" depart="2.3805" fromJunction="4way_41" toJunction="3way_73"/>
<trip id="16" depart="2.5392" fromJunction="4way_21" toJunction="4way_11"/>
<trip id="17" depart="2.6979" fromJunction="4way_57" toJunction="3way_2"/>
<trip id="18" depart="2.8566000000000003" fromJunction="4way_40" toJunction="4way_34"/>
<trip id="19" depart="3.0153000000000003" fromJunction="4way_55" toJunction="3way_9"/>
<trip id="20" depart="3.1740000000000004" fromJunction="3way_5" toJunction="4way_49"/>
<trip id="21" depart="3.3327" fromJunction="3way_35" toJunction="3way_77"/>
<trip id="22" depart="3.4914" fromJunction="4way_10" toJunction="3way_36"/>
<trip id="23" depart="3.6501" fromJunction="4way_55" toJunction="4way_21"/>
<trip id="24" depart="3.8088" fromJunction="3way_17" toJunction="4way_70"/>
<trip id="25" depart="3.9675000000000002" fromJunction="3way_62" toJunction="3way_77"/>
<trip id="26" depart="4.1262" fromJunction="3way_74" toJunction="4way_22"/>
<trip id="27" depart="4.2849" fromJunction="3way_75" toJunction="4way_11"/>
<trip id="28" depart="4.4436" fromJunction="3way_26" toJunction="3way_62"/>
<trip id="29" depart="4.6023000000000005" fromJunction="3way_44" toJunction="4way_22"/>
<trip id="30" depart="4.761" fromJunction="4way_10" toJunction="3way_78"/>
<trip id="31" depart="4.919700000000001" fromJunction="3way_17" toJunction="4way_15"/>
<trip id="32" depart="5.0784" fromJunction="3way_17" toJunction="4way_24"/>
<trip id="33" depart="5.2371" fromJunction="4way_20" toJunction="4way_61"/>
<trip id="34" depart="5.3958" fromJunction="4way_48" toJunction="4way_61"/>
<trip id="35" depart="5.5545" fromJunction="3way_4" toJunction="4way_14"/>
<trip id="36" depart="5.7132000000000005" fromJunction="3way_35" toJunction="3way_63"/>
<trip id="37" depart="5.8719" fromJunction="3way_35" toJunction="3way_54"/>
<trip id="38" depart="6.030600000000001" fromJunction="4way_37" toJunction="3way_36"/>
<trip id="39" depart="6.1893" fromJunction="4way_49" toJunction="3way_5"/>
<trip id="40" depart="6.348000000000001" fromJunction="3way_73" toJunction="4way_21"/>
<trip id="41" depart="6.5067" fromJunction="3way_17" toJunction="4way_56"/>
<trip id="42" depart="6.6654" fromJunction="4way_25" toJunction="4way_30"/>
<trip id="43" depart="6.8241000000000005" fromJunction="4way_31" toJunction="3way_36"/>
<trip id="44" depart="6.9828" fromJunction="4way_67" toJunction="3way_44"/>
<trip id="45" depart="7.141500000000001" fromJunction="3way_79" toJunction="3way_54"/>
<trip id="46" depart="7.3002" fromJunction="3way_2" toJunction="4way_39"/>
<trip id="47" depart="7.458900000000001" fromJunction="3way_1" toJunction="4way_15"/>
<trip id="48" depart="7.6176" fromJunction="3way_73" toJunction="4way_40"/>
<trip id="49" depart="7.7763" fromJunction="4way_52" toJunction="4way_14"/>
<trip id="50" depart="7.9350000000000005" fromJunction="4way_30" toJunction="3way_74"/>
<trip id="51" depart="8.0937" fromJunction="4way_30" toJunction="4way_39"/>
<trip id="52" depart="8.2524" fromJunction="4way_43" toJunction="3way_76"/>
<trip id="53" depart="8.411100000000001" fromJunction="4way_33" toJunction="4way_64"/>
<trip id="54" depart="8.5698" fromJunction="3way_54" toJunction="4way_49"/>
<trip id="55" depart="8.7285" fromJunction="4way_28" toJunction="4way_68"/>
<trip id="56" depart="8.8872" fromJunction="4way_30" toJunction="4way_51"/>
<trip id="57" depart="9.0459" fromJunction="4way_49" toJunction="4way_51"/>
<trip id="58" depart="9.204600000000001" fromJunction="4way_38" toJunction="4way_67"/>
<trip id="59" depart="9.3633" fromJunction="4way_13" toJunction="4way_43"/>
<trip id="60" depart="9.522" fromJunction="4way_48" toJunction="4way_46"/>
<trip id="61" depart="9.6807" fromJunction="3way_45" toJunction="3way_2"/>
<trip id="62" depart="9.839400000000001" fromJunction="3way_54" toJunction="4way_22"/>
<trip id="63" depart="9.9981" fromJunction="4way_55" toJunction="4way_57"/>
<trip id="64" depart="10.1568" fromJunction="3way_54" toJunction="3way_44"/>
<trip id="65" depart="10.3155" fromJunction="4way_39" toJunction="4way_21"/>
<trip id="66" depart="10.4742" fromJunction="4way_22" toJunction="4way_30"/>
<trip id="67" depart="10.632900000000001" fromJunction="4way_55" toJunction="4way_22"/>
<trip id="68" depart="10.7916" fromJunction="4way_10" toJunction="4way_69"/>
<trip id="69" depart="10.9503" fromJunction="4way_60" toJunction="4way_55"/>
<trip id="70" depart="11.109" fromJunction="4way_58" toJunction="4way_68"/>
<trip id="71" depart="11.267700000000001" fromJunction="4way_16" toJunction="3way_17"/>
<trip id="72" depart="11.426400000000001" fromJunction="4way_70" toJunction="4way_58"/>
<trip id="73" depart="11.5851" fromJunction="4way_42" toJunction="3way_53"/>
<trip id="74" depart="11.7438" fromJunction="4way_57" toJunction="3way_62"/>
<trip id="75" depart="11.9025" fromJunction="4way_33" toJunction="3way_35"/>
<trip id="76" depart="12.061200000000001" fromJunction="4way_21" toJunction="4way_68"/>
<trip id="77" depart="12.2199" fromJunction="3way_6" toJunction="4way_37"/>
<trip id="78" depart="12.3786" fromJunction="4way_64" toJunction="4way_49"/>
<trip id="79" depart="12.5373" fromJunction="4way_42" toJunction="4way_67"/>
<trip id="80" depart="12.696000000000002" fromJunction="4way_33" toJunction="4way_61"/>
<trip id="81" depart="12.854700000000001" fromJunction="3way_9" toJunction="3way_1"/>
<trip id="82" depart="13.0134" fromJunction="3way_71" toJunction="4way_14"/>
<trip id="83" depart="13.1721" fromJunction="3way_5" toJunction="4way_56"/>
<trip id="84" depart="13.3308" fromJunction="3way_2" toJunction="3way_78"/>
<trip id="85" depart="13.489500000000001" fromJunction="3way_76" toJunction="4way_59"/>
<trip id="86" depart="13.648200000000001" fromJunction="4way_25" toJunction="3way_18"/>
<trip id="87" depart="13.8069" fromJunction="3way_3" toJunction="4way_58"/>
<trip id="88" depart="13.9656" fromJunction="4way_57" toJunction="3way_62"/>
<trip id="89" depart="14.1243" fromJunction="3way_75" toJunction="4way_30"/>
<trip id="90" depart="14.283000000000001" fromJunction="4way_57" toJunction="4way_25"/>
<trip id="91" depart="14.4417" fromJunction="4way_39" toJunction="4way_65"/>
<trip id="92" depart="14.6004" fromJunction="3way_36" toJunction="4way_14"/>
<trip id="93" depart="14.7591" fromJunction="3way_77" toJunction="4way_28"/>
<trip id="94" depart="14.917800000000002" fromJunction="4way_34" toJunction="3way_79"/>
<trip id="95" depart="15.076500000000001" fromJunction="4way_29" toJunction="4way_14"/>
<trip id="96" depart="15.2352" fromJunction="3way_74" toJunction="3way_76"/>
<trip id="97" depart="15.3939" fromJunction="4way_55" toJunction="3way_5"/>
<trip id="98" depart="15.5526" fromJunction="4way_49" toJunction="3way_36"/>
<trip id="99" depart="15.711300000000001" fromJunction="3way_71" toJunction="4way_19"/>
<trip id="100" depart="15.870000000000001" fromJunction="3way_6" toJunction="3way_2"/>
<trip id="101" depart="16.0287" fromJunction="4way_64" toJunction="4way_40"/>
<trip id="102" depart="16.1874" fromJunction="4way_69" toJunction="4way_65"/>
<trip id="103" depart="16.3461" fromJunction="3way_77" toJunction="4way_70"/>
<trip id="104" depart="16.5048" fromJunction="3way_73" toJunction="4way_31"/>
<trip id="105" depart="16.6635" fromJunction="4way_32" toJunction="3way_2"/>
<trip id="106" depart="16.822200000000002" fromJunction="4way_19" toJunction="3way_36"/>
<trip id="107" depart="16.980900000000002" fromJunction="4way_15" toJunction="4way_39"/>
<trip id="108" depart="17.1396" fromJunction="4way_51" toJunction="4way_66"/>
<trip id="109" depart="17.2983" fromJunction="4way_59" toJunction="3way_63"/>
<trip id="110" depart="17.457" fromJunction="4way_43" toJunction="3way_79"/>
<trip id="111" depart="17.6157" fromJunction="3way_77" toJunction="4way_40"/>
<trip id="112" depart="17.7744" fromJunction="4way_14" toJunction="4way_34"/>
<trip id="113" depart="17.9331" fromJunction="3way_77" toJunction="3way_74"/>
<trip id="114" depart="18.0918" fromJunction="3way_2" toJunction="4way_47"/>
<trip id="115" depart="18.250500000000002" fromJunction="4way_46" toJunction="3way_78"/>
<trip id="116" depart="18.409200000000002" fromJunction="4way_11" toJunction="4way_10"/>
<trip id="117" depart="18.5679" fromJunction="4way_39" toJunction="3way_63"/>
<trip id="118" depart="18.7266" fromJunction="3way_35" toJunction="4way_42"/>
<trip id="119" depart="18.8853" fromJunction="3way_44" toJunction="4way_47"/>
<trip id="120" depart="19.044" fromJunction="4way_28" toJunction="4way_67"/>
<trip id="121" depart="19.2027" fromJunction="3way_79" toJunction="4way_21"/>
<trip id="122" depart="19.3614" fromJunction="4way_29" toJunction="3way_53"/>
<trip id="123" depart="19.5201" fromJunction="4way_34" toJunction="3way_9"/>
<trip id="124" depart="19.678800000000003" fromJunction="4way_23" toJunction="4way_32"/>
<trip id="125" depart="19.837500000000002" fromJunction="3way_7" toJunction="4way_69"/>
<trip id="126" depart="19.9962" fromJunction="4way_39" toJunction="4way_12"/>
<trip id="127" depart="20.1549" fromJunction="3way_54" toJunction="4way_52"/>
<trip id="128" depart="20.3136" fromJunction="3way_17" toJunction="3way_75"/>
<trip id="129" depart="20.4723" fromJunction="4way_25" toJunction="3way_2"/>
<trip id="130" depart="20.631" fromJunction="4way_50" toJunction="4way_31"/>
<trip id="131" depart="20.7897" fromJunction="4way_39" toJunction="3way_63"/>
<trip id="132" depart="20.9484" fromJunction="4way_29" toJunction="3way_5"/>
<trip id="133" depart="21.107100000000003" fromJunction="4way_51" toJunction="4way_61"/>
<trip id="134" depart="21.265800000000002" fromJunction="4way_52" toJunction="3way_18"/>
<trip id="135" depart="21.424500000000002" fromJunction="4way_43" toJunction="3way_76"/>
<trip id="136" depart="21.5832" fromJunction="4way_59" toJunction="4way_34"/>
<trip id="137" depart="21.7419" fromJunction="4way_51" toJunction="4way_66"/>
<trip id="138" depart="21.9006" fromJunction="4way_33" toJunction="3way_54"/>
<trip id="139" depart="22.0593" fromJunction="3way_2" toJunction="4way_57"/>
<trip id="140" depart="22.218" fromJunction="3way_53" toJunction="3way_18"/>
<trip id="141" depart="22.3767" fromJunction="4way_20" toJunction="4way_61"/>
<trip id="142" depart="22.535400000000003" fromJunction="4way_13" toJunction="4way_38"/>
<trip id="143" depart="22.694100000000002" fromJunction="3way_44" toJunction="4way_10"/>
<trip id="144" depart="22.852800000000002" fromJunction="3way_79" toJunction="4way_15"/>
<trip id="145" depart="23.0115" fromJunction="3way_76" toJunction="4way_47"/>
<trip id="146" depart="23.1702" fromJunction="4way_42" toJunction="3way_17"/>
<trip id="147" depart="23.3289" fromJunction="4way_43" toJunction="4way_52"/>
<trip id="148" depart="23.4876" fromJunction="4way_41" toJunction="4way_69"/>
<trip id="149" depart="23.6463" fromJunction="3way_7" toJunction="3way_27"/>
<trip id="150" depart="23.805" fromJunction="3way_76" toJunction="4way_37"/>
<trip id="151" depart="23.963700000000003" fromJunction="3way_5" toJunction="3way_44"/>
<trip id="152" depart="24.122400000000003" fromJunction="3way_1" toJunction="4way_67"/>
<trip id="153" depart="24.281100000000002" fromJunction="3way_53" toJunction="4way_41"/>
<trip id="154" depart="24.4398" fromJunction="3way_75" toJunction="4way_31"/>
<trip id="155" depart="24.5985" fromJunction="4way_12" toJunction="4way_46"/>
<trip id="156" depart="24.7572" fromJunction="4way_67" toJunction="4way_42"/>
<trip id="157" depart="24.9159" fromJunction="3way_44" toJunction="3way_73"/>
<trip id="158" depart="25.0746" fromJunction="3way_45" toJunction="3way_5"/>
<trip id="159" depart="25.2333" fromJunction="4way_11" toJunction="3way_73"/>
<trip id="160" depart="25.392000000000003" fromJunction="4way_49" toJunction="4way_40"/>
<trip id="161" depart="25.550700000000003" fromJunction="4way_19" toJunction="3way_63"/>
<trip id="162" depart="25.709400000000002" fromJunction="4way_50" toJunction="3way_71"/>
<trip id="163" depart="25.868100000000002" fromJunction="4way_49" toJunction="3way_5"/>
<trip id="164" depart="26.0268" fromJunction="4way_10" toJunction="3way_74"/>
<trip id="165" depart="26.1855" fromJunction="3way_63" toJunction="4way_39"/>
<trip id="166" depart="26.3442" fromJunction="3way_78" toJunction="4way_10"/>
<trip id="167" depart="26.5029" fromJunction="3way_4" toJunction="4way_11"/>
<trip id="168" depart="26.6616" fromJunction="3way_6" toJunction="4way_59"/>
<trip id="169" depart="26.8203" fromJunction="3way_45" toJunction="4way_47"/>
<trip id="170" depart="26.979000000000003" fromJunction="4way_43" toJunction="4way_30"/>
<trip id="171" depart="27.137700000000002" fromJunction="3way_3" toJunction="4way_13"/>
<trip id="172" depart="27.296400000000002" fromJunction="4way_47" toJunction="4way_55"/>
<trip id="173" depart="27.4551" fromJunction="4way_40" toJunction="4way_65"/>
<trip id="174" depart="27.6138" fromJunction="3way_35" toJunction="3way_63"/>
<trip id="175" depart="27.7725" fromJunction="4way_43" toJunction="4way_28"/>
<trip id="176" depart="27.9312" fromJunction="4way_69" toJunction="3way_79"/>
<trip id="177" depart="28.0899" fromJunction="4way_11" toJunction="4way_65"/>
<trip id="178" depart="28.2486" fromJunction="4way_11" toJunction="4way_51"/>
<trip id="179" depart="28.407300000000003" fromJunction="4way_28" toJunction="4way_67"/>
<trip id="180" depart="28.566000000000003" fromJunction="4way_49" toJunction="4way_69"/>
<trip id="181" depart="28.724700000000002" fromJunction="3way_27" toJunction="4way_49"/>
<trip id="182" depart="28.8834" fromJunction="4way_66" toJunction="4way_32"/>
<trip id="183" depart="29.0421" fromJunction="3way_62" toJunction="3way_75"/>
<trip id="184" depart="29.2008" fromJunction="4way_43" toJunction="4way_59"/>
<trip id="185" depart="29.3595" fromJunction="4way_39" toJunction="4way_11"/>
<trip id="186" depart="29.5182" fromJunction="4way_11" toJunction="4way_42"/>
<trip id="187" depart="29.6769" fromJunction="4way_30" toJunction="4way_43"/>
<trip id="188" depart="29.835600000000003" fromJunction="4way_69" toJunction="4way_15"/>
<trip id="189" depart="29.994300000000003" fromJunction="3way_62" toJunction="4way_68"/>
<trip id="190" depart="30.153000000000002" fromJunction="4way_28" toJunction="4way_66"/>
<trip id="191" depart="30.311700000000002" fromJunction="4way_46" toJunction="3way_5"/>
<trip id="192" depart="30.4704" fromJunction="4way_33" toJunction="3way_74"/>
<trip id="193" depart="30.6291" fromJunction="4way_43" toJunction="3way_3"/>
<trip id="194" depart="30.7878" fromJunction="3way_79" toJunction="3way_2"/>
<trip id="195" depart="30.9465" fromJunction="4way_25" toJunction="4way_28"/>
<trip id="196" depart="31.1052" fromJunction="4way_34" toJunction="3way_17"/>
<trip id="197" depart="31.263900000000003" fromJunction="4way_64" toJunction="4way_42"/>
<trip id="198" depart="31.422600000000003" fromJunction="3way_76" toJunction="3way_27"/>
<trip id="199" depart="31.581300000000002" fromJunction="3way_3" toJunction="4way_57"/>
<trip id="200" depart="31.740000000000002" fromJunction="4way_55" toJunction="3way_2"/>
<trip id="201" depart="31.8987" fromJunction="3way_74" toJunction="3way_6"/>
<trip id="202" depart="32.0574" fromJunction="3way_74" toJunction="3way_76"/>
<trip id="203" depart="32.216100000000004" fromJunction="3way_1" toJunction="3way_44"/>
<trip id="204" depart="32.3748" fromJunction="4way_57" toJunction="3way_26"/>
<trip id="205" depart="32.533500000000004" fromJunction="4way_70" toJunction="4way_61"/>
<trip id="206" depart="32.6922" fromJunction="3way_62" toJunction="4way_37"/>
<trip id="207" depart="32.8509" fromJunction="4way_29" toJunction="4way_13"/>
<trip id="208" depart="33.0096" fromJunction="3way_6" toJunction="4way_70"/>
<trip id="209" depart="33.1683" fromJunction="3way_54" toJunction="4way_50"/>
<trip id="210" depart="33.327" fromJunction="4way_31" toJunction="3way_75"/>
<trip id="211" depart="33.4857" fromJunction="4way_31" toJunction="3way_75"/>
<trip id="212" depart="33.644400000000005" fromJunction="4way_46" toJunction="4way_47"/>
<trip id="213" depart="33.8031" fromJunction="3way_54" toJunction="4way_12"/>
<trip id="214" depart="33.961800000000004" fromJunction="4way_37" toJunction="4way_58"/>
<trip id="215" depart="34.1205" fromJunction="4way_15" toJunction="3way_9"/>
<trip id="216" depart="34.2792" fromJunction="3way_4" toJunction="4way_25"/>
<trip id="217" depart="34.4379" fromJunction="3way_18" toJunction="3way_76"/>
<trip id="218" depart="34.5966" fromJunction="4way_61" toJunction="4way_68"/>
<trip id="219" depart="34.7553" fromJunction="4way_69" toJunction="4way_52"/>
<trip id="220" depart="34.914" fromJunction="4way_70" toJunction="3way_54"/>
<trip id="221" depart="35.072700000000005" fromJunction="3way_26" toJunction="3way_74"/>
<trip id="222" depart="35.2314" fromJunction="3way_76" toJunction="4way_43"/>
<trip id="223" depart="35.390100000000004" fromJunction="3way_5" toJunction="4way_49"/>
<trip id="224" depart="35.5488" fromJunction="4way_51" toJunction="4way_14"/>
<trip id="225" depart="35.7075" fromJunction="4way_19" toJunction="3way_73"/>
<trip id="226" depart="35.8662" fromJunction="4way_23" toJunction="4way_10"/>
<trip id="227" depart="36.0249" fromJunction="3way_71" toJunction="3way_75"/>
<trip id="228" depart="36.1836" fromJunction="3way_45" toJunction="4way_64"/>
<trip id="229" depart="36.3423" fromJunction="3way_75" toJunction="4way_24"/>
<trip id="230" depart="36.501000000000005" fromJunction="4way_34" toJunction="4way_38"/>
<trip id="231" depart="36.6597" fromJunction="4way_42" toJunction="4way_66"/>
<trip id="232" depart="36.818400000000004" fromJunction="4way_23" toJunction="4way_34"/>
<trip id="233" depart="36.9771" fromJunction="4way_52" toJunction="4way_49"/>
<trip id="234" depart="37.1358" fromJunction="4way_64" toJunction="4way_70"/>
<trip id="235" depart="37.2945" fromJunction="3way_54" toJunction="3way_6"/>
<trip id="236" depart="37.4532" fromJunction="4way_46" toJunction="3way_53"/>
<trip id="237" depart="37.6119" fromJunction="4way_48" toJunction="3way_44"/>
<trip id="238" depart="37.7706" fromJunction="4way_60" toJunction="4way_19"/>
<trip id="239" depart="37.929300000000005" fromJunction="4way_12" toJunction="4way_52"/>
<trip id="240" depart="38.088" fromJunction="4way_39" toJunction="3way_63"/>
<trip id="241" depart="38.246700000000004" fromJunction="4way_37" toJunction="4way_69"/>
<trip id="242" depart="38.4054" fromJunction="3way_73" toJunction="4way_12"/>
<trip id="243" depart="38.5641" fromJunction="4way_28" toJunction="4way_11"/>
<trip id="244" depart="38.7228" fromJunction="4way_38" toJunction="3way_74"/>
<trip id="245" depart="38.8815" fromJunction="4way_10" toJunction="3way_45"/>
<trip id="246" depart="39.0402" fromJunction="4way_23" toJunction="4way_56"/>
<trip id="247" depart="39.1989" fromJunction="4way_25" toJunction="3way_27"/>
<trip id="248" depart="39.357600000000005" fromJunction="3way_4" toJunction="4way_42"/>
<trip id="249" depart="39.5163" fromJunction="4way_64" toJunction="3way_74"/>
<trip id="250" depart="39.675000000000004" fromJunction="3way_18" toJunction="3way_26"/>
<trip id="251" depart="39.8337" fromJunction="4way_40" toJunction="4way_14"/>
<trip id="252" depart="39.9924" fromJunction="4way_58" toJunction="4way_57"/>
<trip id="253" depart="40.1511" fromJunction="3way_18" toJunction="3way_78"/>
<trip id="254" depart="40.3098" fromJunction="4way_51" toJunction="4way_40"/>
<trip id="255" depart="40.4685" fromJunction="3way_63" toJunction="4way_65"/>
<trip id="256" depart="40.6272" fromJunction="4way_58" toJunction="3way_3"/>
<trip id="257" depart="40.785900000000005" fromJunction="4way_10" toJunction="3way_1"/>
<trip id="258" depart="40.9446" fromJunction="4way_25" toJunction="4way_56"/>
<trip id="259" depart="41.103300000000004" fromJunction="4way_37" toJunction="3way_7"/>
<trip id="260" depart="41.262" fromJunction="3way_18" toJunction="3way_2"/>
<trip id="261" depart="41.420700000000004" fromJunction="3way_63" toJunction="4way_57"/>
<trip id="262" depart="41.5794" fromJunction="3way_26" toJunction="3way_77"/>
<trip id="263" depart="41.7381" fromJunction="4way_49" toJunction="4way_30"/>
<trip id="264" depart="41.8968" fromJunction="4way_43" toJunction="4way_31"/>
<trip id="265" depart="42.0555" fromJunction="4way_13" toJunction="3way_1"/>
<trip id="266" depart="42.214200000000005" fromJunction="4way_39" toJunction="4way_48"/>
<trip id="267" depart="42.3729" fromJunction="3way_2" toJunction="4way_52"/>
<trip id="268" depart="42.531600000000005" fromJunction="4way_68" toJunction="4way_49"/>
<trip id="269" depart="42.6903" fromJunction="3way_27" toJunction="4way_47"/>
<trip id="270" depart="42.849000000000004" fromJunction="3way_17" toJunction="4way_50"/>
<trip id="271" depart="43.0077" fromJunction="4way_56" toJunction="4way_64"/>
<trip id="272" depart="43.1664" fromJunction="3way_7" toJunction="4way_49"/>
<trip id="273" depart="43.3251" fromJunction="4way_37" toJunction="3way_76"/>
<trip id="274" depart="43.4838" fromJunction="4way_60" toJunction="4way_57"/>
<trip id="275" depart="43.642500000000005" fromJunction="3way_44" toJunction="4way_57"/>
<trip id="276" depart="43.8012" fromJunction="4way_51" toJunction="4way_61"/>
<trip id="277" depart="43.959900000000005" fromJunction="4way_25" toJunction="4way_38"/>
<trip id="278" depart="44.1186" fromJunction="4way_25" toJunction="4way_65"/>
<trip id="279" depart="44.277300000000004" fromJunction="4way_52" toJunction="4way_15"/>
<trip id="280" depart="44.436" fromJunction="3way_3" toJunction="4way_16"/>
<trip id="281" depart="44.5947" fromJunction="4way_19" toJunction="3way_71"/>
<trip id="282" depart="44.7534" fromJunction="3way_45" toJunction="4way_43"/>
<trip id="283" depart="44.9121" fromJunction="4way_60" toJunction="3way_62"/>
<trip id="284" depart="45.070800000000006" fromJunction="4way_69" toJunction="4way_64"/>
<trip id="285" depart="45.2295" fromJunction="4way_22" toJunction="3way_62"/>
<trip id="286" depart="45.388200000000005" fromJunction="3way_6" toJunction="4way_55"/>
<trip id="287" depart="45.5469" fromJunction="3way_74" toJunction="4way_49"/>
<trip id="288" depart="45.705600000000004" fromJunction="3way_5" toJunction="3way_4"/>
<trip id="289" depart="45.8643" fromJunction="4way_69" toJunction="3way_5"/>
<trip id="290" depart="46.023" fromJunction="4way_69" toJunction="4way_14"/>
<trip id="291" depart="46.1817" fromJunction="4way_56" toJunction="4way_31"/>
<trip id="292" depart="46.3404" fromJunction="4way_70" toJunction="3way_45"/>
<trip id="293" depart="46.499100000000006" fromJunction="4way_20" toJunction="3way_9"/>
<trip id="294" depart="46.6578" fromJunction="4way_61" toJunction="4way_19"/>
<trip id="295" depart="46.816500000000005" fromJunction="3way_27" toJunction="3way_71"/>
<trip id="296" depart="46.9752" fromJunction="3way_5" toJunction="4way_40"/>
<trip id="297" depart="47.133900000000004" fromJunction="4way_20" toJunction="4way_48"/>
<trip id="298" depart="47.2926" fromJunction="3way_75" toJunction="3way_63"/>
<trip id="299" depart="47.4513" fromJunction="4way_10" toJunction="4way_47"/>
<trip id="300" depart="47.61" fromJunction="3way_27" toJunction="4way_11"/>
<trip id="301" depart="47.7687" fromJunction="3way_44" toJunction="4way_52"/>
<trip id="302" depart="47.927400000000006" fromJunction="3way_18" toJunction="3way_17"/>
<trip id="303" depart="48.0861" fromJunction="4way_22" toJunction="4way_39"/>
<trip id="304" depart="48.244800000000005" fromJunction="4way_70" toJunction="4way_28"/>
<trip id="305" depart="48.4035" fromJunction="4way_67" toJunction="3way_9"/>
<trip id="306" depart="48.562200000000004" fromJunction="4way_68" toJunction="4way_13"/>
<trip id="307" depart="48.7209" fromJunction="4way_60" toJunction="4way_61"/>
<trip id="308" depart="48.8796" fromJunction="4way_49" toJunction="4way_32"/>
<trip id="309" depart="49.0383" fromJunction="3way_53" toJunction="3way_27"/>
<trip id="310" depart="49.197" fromJunction="3way_75" toJunction="3way_5"/>
<trip id="311" depart="49.355700000000006" fromJunction="4way_56" toJunction="4way_55"/>
<trip id="312" depart="49.5144" fromJunction="4way_43" toJunction="4way_41"/>
<trip id="313" depart="49.673100000000005" fromJunction="3way_26" toJunction="3way_35"/>
<trip id="314" depart="49.8318" fromJunction="4way_23" toJunction="4way_39"/>
<trip id="315" depart="49.990500000000004" fromJunction="4way_34" toJunction="4way_33"/>
<trip id="316" depart="50.1492" fromJunction="4way_28" toJunction="4way_61"/>
<trip id="317" depart="50.307900000000004" fromJunction="3way_53" toJunction="4way_19"/>
<trip id="318" depart="50.4666" fromJunction="4way_22" toJunction="4way_40"/>
<trip id="319" depart="50.6253" fromJunction="3way_17" toJunction="4way_42"/>
<trip id="320" depart="50.784000000000006" fromJunction="4way_30" toJunction="4way_38"/>
<trip id="321" depart="50.9427" fromJunction="3way_71" toJunction="3way_75"/>
<trip id="322" depart="51.101400000000005" fromJunction="3way_5" toJunction="4way_42"/>
<trip id="323" depart="51.2601" fromJunction="3way_26" toJunction="4way_20"/>
<trip id="324" depart="51.418800000000005" fromJunction="4way_61" toJunction="4way_11"/>
<trip id="325" depart="51.5775" fromJunction="4way_33" toJunction="4way_46"/>
<trip id="326" depart="51.736200000000004" fromJunction="3way_73" toJunction="3way_35"/>
<trip id="327" depart="51.8949" fromJunction="4way_28" toJunction="4way_37"/>
<trip id="328" depart="52.0536" fromJunction="3way_18" toJunction="4way_31"/>
<trip id="329" depart="52.2123" fromJunction="4way_13" toJunction="4way_58"/>
<trip id="330" depart="52.371" fromJunction="4way_55" toJunction="4way_28"/>
<trip id="331" depart="52.529700000000005" fromJunction="3way_6" toJunction="4way_57"/>
<trip id="332" depart="52.6884" fromJunction="4way_22" toJunction="4way_15"/>
<trip id="333" depart="52.847100000000005" fromJunction="4way_65" toJunction="4way_67"/>
<trip id="334" depart="53.0058" fromJunction="4way_37" toJunction="3way_26"/>
<trip id="335" depart="53.164500000000004" fromJunction="3way_36" toJunction="4way_37"/>
<trip id="336" depart="53.3232" fromJunction="4way_14" toJunction="3way_3"/>
<trip id="337" depart="53.4819" fromJunction="4way_48" toJunction="3way_26"/>
<trip id="338" depart="53.6406" fromJunction="4way_66" toJunction="4way_58"/>
<trip id="339" depart="53.7993" fromJunction="3way_17" toJunction="4way_43"/>
<trip id="340" depart="53.958000000000006" fromJunction="3way_3" toJunction="4way_42"/>
<trip id="341" depart="54.1167" fromJunction="4way_37" toJunction="4way_65"/>
<trip id="342" depart="54.275400000000005" fromJunction="4way_10" toJunction="4way_56"/>
<trip id="343" depart="54.4341" fromJunction="3way_2" toJunction="3way_79"/>
<trip id="344" depart="54.592800000000004" fromJunction="4way_24" toJunction="4way_47"/>
<trip id="345" depart="54.7515" fromJunction="3way_76" toJunction="4way_10"/>
<trip id="346" depart="54.9102" fromJunction="3way_17" toJunction="3way_76"/>
<trip id="347" depart="55.0689" fromJunction="3way_6" toJunction="3way_73"/>
<trip id="348" depart="55.2276" fromJunction="4way_33" toJunction="3way_6"/>
<trip id="349" depart="55.386300000000006" fromJunction="4way_21" toJunction="3way_62"/>
<trip id="350" depart="55.545" fromJunction="4way_11" toJunction="4way_41"/>
<trip id="351" depart="55.703700000000005" fromJunction="3way_78" toJunction="3way_53"/>
<trip id="352" depart="55.8624" fromJunction="4way_56" toJunction="4way_55"/>
<trip id="353" depart="56.021100000000004" fromJunction="4way_50" toJunction="3way_18"/>
<trip id="354" depart="56.1798" fromJunction="4way_25" toJunction="4way_23"/>
<trip id="355" depart="56.3385" fromJunction="4way_60" toJunction="3way_3"/>
<trip id="356" depart="56.4972" fromJunction="4way_51" toJunction="4way_28"/>
<trip id="357" depart="56.6559" fromJunction="4way_70" toJunction="4way_49"/>
<trip id="358" depart="56.814600000000006" fromJunction="4way_10" toJunction="4way_32"/>
<trip id="359" depart="56.9733" fromJunction="4way_10" toJunction="4way_38"/>
<trip id="360" depart="57.132000000000005" fromJunction="3way_73" toJunction="4way_10"/>
<trip id="361" depart="57.2907" fromJunction="4way_40" toJunction="4way_38"/>
<trip id="362" depart="57.449400000000004" fromJunction="4way_56" toJunction="3way_63"/>
<trip id="363" depart="57.6081" fromJunction="3way_62" toJunction="3way_35"/>
<trip id="364" depart="57.7668" fromJunction="4way_52" toJunction="3way_4"/>
<trip id="365" depart="57.9255" fromJunction="3way_71" toJunction="3way_1"/>
<trip id="366" depart="58.0842" fromJunction="3way_7" toJunction="4way_57"/>
<trip id="367" depart="58.242900000000006" fromJunction="4way_67" toJunction="4way_51"/>
<trip id="368" depart="58.4016" fromJunction="4way_47" toJunction="4way_52"/>