<routes xmlns:xsi="http://www.w3.org/2001/XMLSchema-instance" xsi:noNamespaceSchemaLocation="http://sumo.dlr.de/xsd/routes_file.xsd">
<trip id="0" depart="0.0" fromJunction="4way_12" toJunction="4way_26"/>
<trip id="1" depart="0.2941" fromJunction="4way_26" toJunction="4way_11"/>
<trip id="2" depart="0.5882" fromJunction="4way_27" toJunction="4way_17"/>
<trip id="3" depart="0.8822999999999999" fromJunction="4way_53" toJunction="4way_25"/>
<trip id="4" depart="1.1764" fromJunction="3way_8" toJunction="4way_38"/>
<trip id="5" depart="1.4705" fromJunction="4way_18" toJunction="4way_52"/>
<trip id="6" depart="1.7645999999999997" fromJunction="4way_22" toJunction="4way_42"/>
<trip id="7" depart="2.0587" fromJunction="3way_6" toJunction="3way_5"/>
<trip id="8" depart="2.3528" fromJunction="4way_21" toJunction="3way_2"/>
<trip id="9" depart="2.6468999999999996" fromJunction="4way_45" toJunction="4way_44"/>
<trip id="10" depart="2.941" fromJunction="4way_52" toJunction="4way_46"/>
<trip id="11" depart="3.2350999999999996" fromJunction="4way_44" toJunction="4way_33"/>
<trip id="12" depart="3.5291999999999994" fromJunction="4way_27" toJunction="3way_23"/>
<trip id="13" depart="3.8232999999999997" fromJunction="4way_30" toJunction="3way_31"/>
<trip id="14" depart="4.1174" fromJunction="4way_9" toJunction="4way_18"/>
<trip id="15" depart="4.411499999999999" fromJunction="4way_44" toJunction="3way_59"/>
<trip id="16" depart="4.7056" fromJunction="4way_42" toJunction="4way_33"/>
<trip id="17" depart="4.9997" fromJunction="4way_19" toJunction="3way_2"/>
<trip id="18" depart="5.293799999999999" fromJunction="4way_19" toJunction="4way_11"/>
<trip id="19" depart="5.587899999999999" fromJunction="4way_43" toJunction="4way_30"/>
<trip id="20" depart="5.882" fromJunction="4way_25" toJunction="3way_24"/>
<trip id="21" depart="6.176099999999999" fromJunction="3way_4" toJunction="4way_51"/>
<trip id="22" depart="6.470199999999999" fromJunction="3way_23" toJunction="3way_62"/>
<trip id="23" depart="6.7642999999999995" fromJunction="3way_24" toJunction="3way_48"/>
<trip id="24" depart="7.058399999999999" fromJunction="4way_25" toJunction="4way_42"/>
<trip id="25" depart="7.352499999999999" fromJunction="3way_15" toJunction="4way_54"/>
<trip id="26" depart="7.646599999999999" fromJunction="3way_39" toJunction="3way_62"/>
<trip id="27" depart="7.9407" fromJunction="3way_59" toJunction="4way_35"/>
<trip id="28" depart="8.2348" fromJunction="3way_60" toJunction="4way_33"/>
<trip id="29" depart="8.528899999999998" fromJunction="3way_15" toJunction="3way_39"/>
<trip id="30" depart="8.822999999999999" fromJunction="3way_31" toJunction="4way_35"/>
<trip id="31" depart="9.117099999999999" fromJunction="3way_16" toJunction="3way_55"/>
<trip id="32" depart="9.4112" fromJunction="3way_6" toJunction="4way_21"/>
<trip id="33" depart="9.7053" fromJunction="3way_6" toJunction="4way_29"/>
<trip id="34" depart="9.9994" fromJunction="4way_41" toJunction="4way_46"/>
<trip id="35" depart="10.2935" fromJunction="4way_11" toJunction="4way_46"/>
<trip id="36" depart="10.587599999999998" fromJunction="3way_3" toJunction="4way_28"/>
<trip id="37" depart="10.881699999999999" fromJunction="3way_23" toJunction="3way_58"/>
<trip id="38" depart="11.175799999999999" fromJunction="3way_23" toJunction="3way_57"/>
<trip id="39" depart="11.469899999999999" fromJunction="4way_9" toJunction="3way_40"/>
<trip id="40" depart="11.764" fromJunction="4way_51" toJunction="3way_4"/>
<trip id="41" depart="12.0581" fromJunction="3way_59" toJunction="4way_34"/>
<trip id="42" depart="12.352199999999998" fromJunction="3way_6" toJunction="4way_18"/>
<trip id="43" depart="12.646299999999998" fromJunction="4way_22" toJunction="4way_42"/>
<trip id="44" depart="12.940399999999999" fromJunction="4way_43" toJunction="3way_40"/>
<trip id="45" depart="13.234499999999999" fromJunction="4way_12" toJunction="3way_23"/>
<trip id="46" depart="13.528599999999999" fromJunction="3way_47" toJunction="3way_57"/>
<trip id="47" depart="13.8227" fromJunction="3way_2" toJunction="4way_50"/>
<trip id="48" depart="14.116799999999998" fromJunction="3way_1" toJunction="4way_21"/>
<trip id="49" depart="14.410899999999998" fromJunction="3way_58" toJunction="4way_43"/>
<trip id="50" depart="14.704999999999998" fromJunction="4way_38" toJunction="4way_28"/>
<trip id="51" depart="14.999099999999999" fromJunction="4way_42" toJunction="3way_60"/>
<trip id="52" depart="15.293199999999999" fromJunction="4way_42" toJunction="4way_50"/>
<trip id="53" depart="15.587299999999999" fromJunction="4way_38" toJunction="3way_61"/>
<trip id="54" depart="15.8814" fromJunction="4way_29" toJunction="4way_25"/>
<trip id="55" depart="16.1755" fromJunction="3way_57" toJunction="4way_51"/>
<trip id="56" depart="16.4696" fromJunction="3way_8" toJunction="4way_13"/>
<trip id="57" depart="16.7637" fromJunction="4way_42" toJunction="4way_45"/>
<trip id="58" depart="17.057799999999997" fromJunction="4way_51" toJunction="4way_45"/>
<trip id="59" depart="17.351899999999997" fromJunction="4way_10" toJunction="4way_20"/>
<trip id="60" depart="17.645999999999997" fromJunction="4way_27" toJunction="4way_38"/>
<trip id="61" depart="17.940099999999997" fromJunction="4way_11" toJunction="4way_17"/>
<trip id="62" depart="18.234199999999998" fromJunction="3way_48" toJunction="3way_2"/>
<trip id="63" depart="18.528299999999998" fromJunction="3way_57" toJunction="4way_35"/>
<trip id="64" depart="18.8224" fromJunction="4way_17" toJunction="4way_19"/>
<trip id="65" depart="19.1165" fromJunction="3way_57" toJunction="3way_31"/>
<trip id="66" depart="19.4106" fromJunction="4way_50" toJunction="4way_42"/>
<trip id="67" depart="19.7047" fromJunction="4way_35" toJunction="4way_42"/>
<trip id="68" depart="19.9988" fromJunction="4way_17" toJunction="4way_35"/>
<trip id="69" depart="20.2929" fromJunction="3way_16" toJunction="4way_53"/>
<trip id="70" depart="20.587" fromJunction="4way_53" toJunction="4way_25"/>
<trip id="71" depart="20.881099999999996" fromJunction="4way_12" toJunction="4way_13"/>
<trip id="72" depart="21.175199999999997" fromJunction="4way_22" toJunction="3way_15"/>
<trip id="73" depart="21.469299999999997" fromJunction="4way_54" toJunction="4way_12"/>
<trip id="74" depart="21.763399999999997" fromJunction="4way_45" toJunction="3way_31"/>
<trip id="75" depart="22.057499999999997" fromJunction="4way_11" toJunction="3way_39"/>
<trip id="76" depart="22.351599999999998" fromJunction="4way_29" toJunction="3way_23"/>
<trip id="77" depart="22.645699999999998" fromJunction="4way_42" toJunction="4way_13"/>
<trip id="78" depart="22.939799999999998" fromJunction="3way_5" toJunction="4way_9"/>
<trip id="79" depart="23.2339" fromJunction="4way_33" toJunction="4way_51"/>
<trip id="80" depart="23.528" fromJunction="4way_37" toJunction="4way_20"/>
<trip id="81" depart="23.8221" fromJunction="4way_37" toJunction="4way_46"/>
<trip id="82" depart="24.1162" fromJunction="3way_24" toJunction="3way_1"/>
<trip id="83" depart="24.4103" fromJunction="3way_47" toJunction="4way_20"/>
<trip id="84" depart="24.704399999999996" fromJunction="3way_4" toJunction="4way_18"/>
<trip id="85" depart="24.998499999999996" fromJunction="3way_2" toJunction="3way_55"/>
<trip id="86" depart="25.292599999999997" fromJunction="3way_61" toJunction="4way_52"/>
<trip id="87" depart="25.586699999999997" fromJunction="4way_22" toJunction="3way_32"/>
<trip id="88" depart="25.880799999999997" fromJunction="3way_2" toJunction="4way_12"/>
<trip id="89" depart="26.174899999999997" fromJunction="4way_19" toJunction="3way_39"/>
<trip id="90" depart="26.468999999999998" fromJunction="3way_60" toJunction="4way_42"/>
<trip id="91" depart="26.763099999999998" fromJunction="4way_11" toJunction="4way_30"/>
<trip id="92" depart="27.057199999999998" fromJunction="4way_50" toJunction="4way_26"/>
<trip id="93" depart="27.3513" fromJunction="3way_48" toJunction="4way_20"/>
<trip id="94" depart="27.6454" fromJunction="3way_62" toJunction="3way_8"/>
<trip id="95" depart="27.9395" fromJunction="4way_30" toJunction="3way_55"/>
<trip id="96" depart="28.233599999999996" fromJunction="4way_49" toJunction="4way_28"/>
<trip id="97" depart="28.527699999999996" fromJunction="3way_59" toJunction="3way_61"/>
<trip id="98" depart="28.821799999999996" fromJunction="4way_25" toJunction="3way_4"/>
<trip id="99" depart="29.115899999999996" fromJunction="4way_51" toJunction="3way_48"/>
<trip id="100" depart="29.409999999999997" fromJunction="3way_47" toJunction="3way_16"/>
<trip id="101" depart="29.704099999999997" fromJunction="3way_5" toJunction="3way_2"/>
<trip id="102" depart="29.998199999999997" fromJunction="4way_33" toJunction="4way_43"/>
<trip id="103" depart="30.292299999999997" fromJunction="4way_53" toJunction="4way_26"/>
<trip id="104" depart="30.586399999999998" fromJunction="3way_61" toJunction="4way_54"/>
<trip id="105" depart="30.880499999999998" fromJunction="3way_59" toJunction="4way_35"/>
<trip id="106" depart="31.174599999999998" fromJunction="4way_36" toJunction="3way_2"/>
<trip id="107" depart="31.4687" fromJunction="3way_8" toJunction="3way_40"/>
<trip id="108" depart="31.7628" fromJunction="4way_21" toJunction="4way_50"/>
<trip id="109" depart="32.0569" fromJunction="4way_45" toJunction="4way_19"/>
<trip id="110" depart="32.351" fromJunction="4way_52" toJunction="3way_58"/>
<trip id="111" depart="32.6451" fromJunction="4way_38" toJunction="3way_55"/>
<trip id="112" depart="32.9392" fromJunction="3way_62" toJunction="4way_51"/>
<trip id="113" depart="33.2333" fromJunction="4way_20" toJunction="4way_30"/>
<trip id="114" depart="33.5274" fromJunction="3way_62" toJunction="3way_59"/>
<trip id="115" depart="33.8215" fromJunction="3way_2" toJunction="4way_18"/>
<trip id="116" depart="34.11559999999999" fromJunction="4way_17" toJunction="3way_62"/>
<trip id="117" depart="34.409699999999994" fromJunction="4way_33" toJunction="3way_16"/>
<trip id="118" depart="34.703799999999994" fromJunction="4way_50" toJunction="3way_58"/>
<trip id="119" depart="34.997899999999994" fromJunction="3way_23" toJunction="4way_37"/>
<trip id="120" depart="35.291999999999994" fromJunction="3way_23" toJunction="4way_18"/>
<trip id="121" depart="35.586099999999995" fromJunction="3way_8" toJunction="4way_20"/>
<trip id="122" depart="35.880199999999995" fromJunction="3way_47" toJunction="4way_34"/>
<trip id="123" depart="36.174299999999995" fromJunction="4way_49" toJunction="3way_31"/>
<trip id="124" depart="36.468399999999995" fromJunction="4way_30" toJunction="3way_24"/>
<trip id="125" depart="36.762499999999996" fromJunction="4way_28" toJunction="4way_36"/>
<trip id="126" depart="37.056599999999996" fromJunction="3way_6" toJunction="4way_14"/>
<trip id="127" depart="37.350699999999996" fromJunction="4way_50" toJunction="4way_34"/>
<trip id="128" depart="37.6448" fromJunction="3way_57" toJunction="4way_38"/>
<trip id="129" depart="37.9389" fromJunction="3way_15" toJunction="3way_60"/>
<trip id="130" depart="38.233" fromJunction="4way_22" toJunction="3way_1"/>
<trip id="131" depart="38.5271" fromJunction="4way_52" toJunction="4way_43"/>
<trip id="132" depart="38.8212" fromJunction="4way_50" toJunction="3way_58"/>
<trip id="133" depart="39.1153" fromJunction="4way_49" toJunction="3way_4"/>
<trip id="134" depart="39.4094" fromJunction="4way_45" toJunction="4way_46"/>
<trip id="135" depart="39.7035" fromJunction="4way_38" toJunction="3way_32"/>
<trip id="136" depart="39.9976" fromJunction="4way_30" toJunction="3way_61"/>
<trip id="137" depart="40.2917" fromJunction="4way_52" toJunction="4way_30"/>
<trip id="138" depart="40.5858" fromJunction="4way_45" toJunction="4way_19"/>
<trip id="139" depart="40.8799" fromJunction="4way_29" toJunction="3way_57"/>
<trip id="140" depart="41.174" fromJunction="3way_1" toJunction="4way_19"/>
<trip id="141" depart="41.46809999999999" fromJunction="3way_31" toJunction="3way_32"/>
<trip id="142" depart="41.76219999999999" fromJunction="4way_41" toJunction="4way_46"/>
<trip id="143" depart="42.05629999999999" fromJunction="4way_27" toJunction="4way_49"/>
<trip id="144" depart="42.35039999999999" fromJunction="3way_31" toJunction="3way_16"/>
<trip id="145" depart="42.644499999999994" fromJunction="3way_55" toJunction="4way_21"/>
<trip id="146" depart="42.938599999999994" fromJunction="3way_61" toJunction="4way_10"/>
<trip id="147" depart="43.232699999999994" fromJunction="4way_37" toJunction="3way_6"/>
<trip id="148" depart="43.526799999999994" fromJunction="4way_38" toJunction="4way_46"/>
<trip id="149" depart="43.820899999999995" fromJunction="4way_44" toJunction="4way_14"/>
<trip id="150" depart="44.114999999999995" fromJunction="3way_5" toJunction="3way_40"/>
<trip id="151" depart="44.409099999999995" fromJunction="3way_61" toJunction="4way_9"/>
<trip id="152" depart="44.703199999999995" fromJunction="3way_4" toJunction="3way_23"/>
<trip id="153" depart="44.997299999999996" fromJunction="3way_1" toJunction="4way_20"/>
<trip id="154" depart="45.291399999999996" fromJunction="3way_31" toJunction="4way_44"/>
<trip id="155" depart="45.585499999999996" fromJunction="3way_6" toJunction="3way_5"/>
<trip id="156" depart="45.879599999999996" fromJunction="3way_60" toJunction="4way_43"/>
<trip id="157" depart="46.1737" fromJunction="4way_34" toJunction="4way_17"/>
<trip id="158" depart="46.4678" fromJunction="4way_20" toJunction="4way_37"/>
<trip id="159" depart="46.7619" fromJunction="3way_23" toJunction="3way_58"/>
<trip id="160" depart="47.056" fromJunction="3way_48" toJunction="3way_4"/>
<trip id="161" depart="47.3501" fromJunction="4way_33" toJunction="3way_59"/>
<trip id="162" depart="47.6442" fromJunction="4way_51" toJunction="4way_43"/>
<trip id="163" depart="47.9383" fromJunction="3way_16" toJunction="3way_57"/>
<trip id="164" depart="48.2324" fromJunction="4way_52" toJunction="3way_47"/>
<trip id="165" depart="48.5265" fromJunction="4way_51" toJunction="3way_4"/>
<trip id="166" depart="48.8206" fromJunction="3way_16" toJunction="3way_59"/>
<trip id="167" depart="49.11469999999999" fromJunction="3way_58" toJunction="4way_50"/>
<trip id="168" depart="49.40879999999999" fromJunction="3way_55" toJunction="3way_16"/>
<trip id="169" depart="49.70289999999999" fromJunction="3way_3" toJunction="4way_33"/>
<trip id="170" depart="49.99699999999999" fromJunction="3way_5" toJunction="4way_52"/>
<trip id="171" depart="50.29109999999999" fromJunction="3way_48" toJunction="4way_18"/>
<trip id="172" depart="50.58519999999999" fromJunction="4way_38" toJunction="4way_42"/>
<trip id="173" depart="50.87929999999999" fromJunction="3way_3" toJunction="4way_27"/>
<trip id="174" depart="51.173399999999994" fromJunction="4way_10" toJunction="4way_17"/>
<trip id="175" depart="51.467499999999994" fromJunction="4way_43" toJunction="4way_26"/>
<trip id="176" depart="51.761599999999994" fromJunction="3way_23" toJunction="3way_58"/>
<trip id="177" depart="52.055699999999995" fromJunction="4way_38" toJunction="3way_8"/>
<trip id="178" depart="52.349799999999995" fromJunction="4way_14" toJunction="3way_55"/>
<trip id="179" depart="52.643899999999995" fromJunction="4way_33" toJunction="4way_26"/>
<trip id="180" depart="52.937999999999995" fromJunction="4way_33" toJunction="4way_45"/>
<trip id="181" depart="53.232099999999996" fromJunction="3way_8" toJunction="4way_20"/>
<trip id="182" depart="53.526199999999996" fromJunction="4way_51" toJunction="4way_14"/>
<trip id="183" depart="53.820299999999996" fromJunction="3way_40" toJunction="4way_51"/>
<trip id="184" depart="54.114399999999996" fromJunction="4way_27" toJunction="4way_36"/>
<trip id="185" depart="54.4085" fromJunction="3way_39" toJunction="3way_60"/>
<trip id="186" depart="54.7026" fromJunction="4way_38" toJunction="4way_52"/>
<trip id="187" depart="54.9967" fromJunction="4way_50" toJunction="4way_33"/>
<trip id="188" depart="55.2908" fromJunction="4way_33" toJunction="4way_37"/>
<trip id="189" depart="55.5849" fromJunction="4way_42" toJunction="4way_38"/>
<trip id="190" depart="55.879" fromJunction="4way_14" toJunction="4way_21"/>
<trip id="191" depart="56.1731" fromJunction="3way_39" toJunction="4way_13"/>
<trip id="192" depart="56.46719999999999" fromJunction="3way_8" toJunction="4way_19"/>
<trip id="193" depart="56.76129999999999" fromJunction="4way_17" toJunction="3way_4"/>
<trip id="194" depart="57.05539999999999" fromJunction="4way_29" toJunction="3way_59"/>
<trip id="195" depart="57.34949999999999" fromJunction="4way_38" toJunction="3way_2"/>
<trip id="196" depart="57.64359999999999" fromJunction="3way_55" toJunction="3way_1"/>
<trip id="197" depart="57.93769999999999" fromJunction="4way_22" toJunction="4way_9"/>
<trip id="198" depart="58.23179999999999" fromJunction="4way_30" toJunction="3way_6"/>
<trip id="199" depart="58.52589999999999" fromJunction="4way_33" toJunction="4way_45"/>
<trip id="200" depart="58.81999999999999" fromJunction="3way_61" toJunction="3way_40"/>
<trip id="201" depart="59.11409999999999" fromJunction="3way_2" toJunction="4way_11"/>
<trip id="202" depart="59.408199999999994" fromJunction="4way_17" toJunction="3way_1"/>
<trip id="203" depart="59.702299999999994" fromJunction="3way_59" toJunction="3way_5"/>
<trip id="204" depart="59.996399999999994" fromJunction="3way_59" toJunction="3way_61"/>
<trip id="205" depart="60.290499999999994" fromJunction="3way_1" toJunction="3way_23"/>
<trip id="206" depart="60.584599999999995" fromJunction="4way_19" toJunction="3way_15"/>
<trip id="207" depart="60.878699999999995" fromJunction="4way_54" toJunction="4way_46"/>
<trip id="208" depart="61.172799999999995" fromJunction="3way_39" toJunction="4way_9"/>
<trip id="209" depart="61.466899999999995" fromJunction="4way_49" toJunction="4way_27"/>
<trip id="210" depart="61.760999999999996" fromJunction="3way_4" toJunction="4way_54"/>
<trip id="211" depart="62.055099999999996" fromJunction="3way_57" toJunction="4way_44"/>
<trip id="212" depart="62.349199999999996" fromJunction="4way_35" toJunction="3way_60"/>
<trip id="213" depart="62.643299999999996" fromJunction="4way_35" toJunction="3way_60"/>
<trip id="214" depart="62.9374" fromJunction="4way_17" toJunction="4way_18"/>
<trip id="215" depart="63.2315" fromJunction="3way_57" toJunction="4way_34"/>
<trip id="216" depart="63.5256" fromJunction="4way_9" toJunction="4way_12"/>
<trip id="217" depart="63.8197" fromJunction="4way_21" toJunction="3way_24"/>
<trip id="218" depart="64.1138" fromJunction="3way_3" toJunction="4way_22"/>
<trip id="219" depart="64.4079" fromJunction="3way_32" toJunction="3way_61"/>
<trip id="220" depart="64.702" fromJunction="4way_54" toJunction="4way_13"/>
<trip id="221" depart="64.9961" fromJunction="4way_14" toJunction="4way_46"/>
<trip id="222" depart="65.2902" fromJunction="4way_54" toJunction="3way_57"/>
<trip id="223" depart="65.5843" fromJunction="3way_15" toJunction="3way_60"/>
<trip id="224" depart="65.8784" fromJunction="3way_60" toJunction="4way_38"/>
<trip id="225" depart="66.1725" fromJunction="3way_4" toJunction="4way_51"/>
<trip id="226" depart="66.4666" fromJunction="4way_45" toJunction="4way_20"/>
<trip id="227" depart="66.7607" fromJunction="3way_16" toJunction="3way_58"/>
<trip id="228" depart="67.0548" fromJunction="4way_28" toJunction="3way_16"/>
<trip id="229" depart="67.3489" fromJunction="3way_47" toJunction="3way_60"/>
<trip id="230" depart="67.643" fromJunction="3way_48" toJunction="4way_25"/>
<trip id="231" depart="67.93709999999999" fromJunction="3way_60" toJunction="4way_29"/>
<trip id="232" depart="68.23119999999999" fromJunction="4way_30" toJunction="4way_10"/>
<trip id="233" depart="68.52529999999999" fromJunction="4way_45" toJunction="4way_27"/>
<trip id="234" depart="68.81939999999999" fromJunction="4way_36" toJunction="4way_30"/>
<trip id="235" depart="69.11349999999999" fromJunction="4way_46" toJunction="4way_51"/>
<trip id="236" depart="69.40759999999999" fromJunction="4way_33" toJunction="4way_54"/>
<trip id="237" depart="69.70169999999999" fromJunction="3way_57" toJunction="3way_5"/>
<trip id="238" depart="69.99579999999999" fromJunction="4way_17" toJunction="3way_39"/>
<trip id="239" depart="70.28989999999999" fromJunction="4way_11" toJunction="3way_23"/>
<trip id="240" depart="70.58399999999999" fromJunction="4way_53" toJunction="3way_16"/>
<trip id="241" depart="70.87809999999999" fromJunction="4way_26" toJunction="4way_46"/>
<trip id="242" depart="71.17219999999999" fromJunction="4way_50" toJunction="3way_58"/>
<trip id="243" depart="71.46629999999999" fromJunction="4way_9" toJunction="4way_53"/>
<trip id="244" depart="71.76039999999999" fromJunction="3way_58" toJunction="4way_34"/>
<trip id="245" depart="72.05449999999999" fromJunction="4way_9" toJunction="4way_33"/>
<trip id="246" depart="72.34859999999999" fromJunction="4way_10" toJunction="3way_60"/>
<trip id="247" depart="72.64269999999999" fromJunction="3way_16" toJunction="3way_48"/>
<trip id="248" depart="72.93679999999999" fromJunction="4way_36" toJunction="4way_18"/>
<trip id="249" depart="73.23089999999999" fromJunction="4way_22" toJunction="3way_32"/>
<trip id="250" depart="73.52499999999999" fromJunction="3way_3" toJunction="4way_37"/>
<trip id="251" depart="73.81909999999999" fromJunction="4way_25" toJunction="3way_59"/>
<trip id="252" depart="74.11319999999999" fromJunction="3way_32" toJunction="3way_15"/>
<trip id="253" depart="74.40729999999999" fromJunction="4way_43" toJunction="4way_28"/>
<trip id="254" depart="74.70139999999999" fromJunction="4way_12" toJunction="4way_19"/>
<trip id="255" depart="74.99549999999999" fromJunction="3way_32" toJunction="3way_62"/>
<trip id="256" depart="75.2896" fromJunction="4way_45" toJunction="4way_43"/>
<trip id="257" depart="75.5837" fromJunction="3way_58" toJunction="4way_26"/>
<trip id="258" depart="75.8778" fromJunction="4way_12" toJunction="3way_2"/>
<trip id="259" depart="76.1719" fromJunction="3way_16" toJunction="3way_1"/>
<trip id="260" depart="76.466" fromJunction="4way_22" toJunction="4way_18"/>
<trip id="261" depart="76.7601" fromJunction="4way_9" toJunction="3way_6"/>
<trip id="262" depart="77.0542" fromJunction="3way_32" toJunction="3way_2"/>
<trip id="263" depart="77.3483" fromJunction="3way_58" toJunction="4way_19"/>
<trip id="264" depart="77.6424" fromJunction="3way_15" toJunction="3way_62"/>
<trip id="265" depart="77.9365" fromJunction="4way_51" toJunction="4way_42"/>
<trip id="266" depart="78.2306" fromJunction="4way_30" toJunction="4way_43"/>
<trip id="267" depart="78.5247" fromJunction="4way_27" toJunction="3way_1"/>
<trip id="268" depart="78.8188" fromJunction="4way_50" toJunction="4way_11"/>
<trip id="269" depart="79.1129" fromJunction="3way_2" toJunction="4way_38"/>
<trip id="270" depart="79.407" fromJunction="4way_13" toJunction="4way_51"/>
<trip id="271" depart="79.7011" fromJunction="3way_32" toJunction="4way_10"/>
<trip id="272" depart="79.9952" fromJunction="3way_6" toJunction="4way_52"/>
<trip id="273" depart="80.2893" fromJunction="4way_18" toJunction="4way_25"/>
<trip id="274" depart="80.5834" fromJunction="3way_6" toJunction="4way_51"/>
<trip id="275" depart="80.8775" fromJunction="4way_9" toJunction="3way_61"/>
<trip id="276" depart="81.1716" fromJunction="4way_53" toJunction="4way_19"/>
<trip id="277" depart="81.4657" fromJunction="3way_31" toJunction="4way_19"/>
<trip id="278" depart="81.7598" fromJunction="4way_45" toJunction="4way_46"/>
<trip id="279" depart="82.0539" fromJunction="4way_22" toJunction="4way_10"/>
<trip id="280" depart="82.348" fromJunction="4way_22" toJunction="4way_26"/>
<trip id="281" depart="82.6421" fromJunction="4way_46" toJunction="4way_21"/>
<trip id="282" depart="82.93619999999999" fromJunction="3way_3" toJunction="4way_22"/>
<trip id="283" depart="83.23029999999999" fromJunction="3way_8" toJunction="3way_47"/>
<trip id="284" depart="83.52439999999999" fromJunction="3way_48" toJunction="4way_38"/>
<trip id="285" depart="83.81849999999999" fromJunction="4way_53" toJunction="3way_39"/>
<trip id="286" depart="84.11259999999999" fromJunction="4way_14" toJunction="4way_25"/>
<trip id="287" depart="84.40669999999999" fromJunction="4way_35" toJunction="3way_39"/>
<trip id="288" depart="84.70079999999999" fromJunction="3way_5" toJunction="4way_25"/>
<trip id="289" depart="84.99489999999999" fromJunction="3way_60" toJunction="4way_51"/>
<trip id="290" depart="85.28899999999999" fromJunction="3way_4" toJunction="3way_3"/>
<trip id="291" depart="85.58309999999999" fromJunction="4way_14" toJunction="3way_4"/>
<trip id="292" depart="85.87719999999999" fromJunction="4way_53" toJunction="4way_28"/>
<trip id="293" depart="86.17129999999999" fromJunction="4way_18" toJunction="4way_43"/>
<trip id="294" depart="86.46539999999999" fromJunction="4way_54" toJunction="3way_48"/>
<trip id="295" depart="86.75949999999999" fromJunction="4way_41" toJunction="3way_24"/>
<trip id="296" depart="87.05359999999999" fromJunction="4way_46" toJunction="3way_16"/>
<trip id="297" depart="87.34769999999999" fromJunction="3way_40" toJunction="3way_47"/>
<trip id="298" depart="87.64179999999999" fromJunction="3way_4" toJunction="4way_43"/>
<trip id="299" depart="87.93589999999999" fromJunction="4way_41" toJunction="4way_11"/>
<trip id="300" depart="88.22999999999999" fromJunction="3way_60" toJunction="3way_57"/>
<trip id="301" depart="88.52409999999999" fromJunction="3way_16" toJunction="4way_10"/>
<trip id="302" depart="88.81819999999999" fromJunction="3way_32" toJunction="4way_33"/>
<trip id="303" depart="89.11229999999999" fromJunction="3way_31" toJunction="4way_46"/>
<trip id="304" depart="89.40639999999999" fromJunction="3way_32" toJunction="3way_6"/>
<trip id="305" depart="89.70049999999999" fromJunction="4way_35" toJunction="4way_50"/>
<trip id="306" depart="89.99459999999999" fromJunction="4way_54" toJunction="3way_8"/>
<trip id="307" depart="90.28869999999999" fromJunction="4way_20" toJunction="3way_24"/>
<trip id="308" depart="90.58279999999999" fromJunction="4way_13" toJunction="4way_27"/>
<trip id="309" depart="90.87689999999999" fromJunction="4way_53" toJunction="4way_46"/>
<trip id="310" depart="91.17099999999999" fromJunction="4way_51" toJunction="4way_36"/>
<trip id="311" depart="91.46509999999999" fromJunction="3way_31" toJunction="3way_32"/>
<trip id="312" depart="91.75919999999999" fromJunction="3way_60" toJunction="3way_4"/>
<trip id="313" depart="92.0533" fromJunction="4way_18" toJunction="4way_17"/>
<trip id="314" depart="92.3474" fromJunction="4way_38" toJunction="4way_44"/>
<trip id="315" depart="92.6415" fromJunction="3way_15" toJunction="3way_23"/>
<trip id="316" depart="92.9356" fromJunction="4way_28" toJunction="4way_50"/>
<trip id="317" depart="93.2297" fromJunction="4way_30" toJunction="4way_29"/>
<trip id="318" depart="93.5238" fromJunction="3way_8" toJunction="4way_54"/>
<trip id="319" depart="93.8179" fromJunction="3way_31" toJunction="3way_16"/>
<trip id="320" depart="94.112" fromJunction="4way_35" toJunction="4way_51"/>
<trip id="321" depart="94.4061" fromJunction="3way_6" toJunction="4way_37"/>
<trip id="322" depart="94.7002" fromJunction="4way_42" toJunction="4way_49"/>
<trip id="323" depart="94.9943" fromJunction="3way_47" toJunction="3way_60"/>
<trip id="324" depart="95.2884" fromJunction="3way_4" toJunction="4way_37"/>
<trip id="325" depart="95.5825" fromJunction="3way_15" toJunction="4way_41"/>
<trip id="326" depart="95.8766" fromJunction="4way_46" toJunction="4way_33"/>
<trip id="327" depart="96.1707" fromJunction="4way_37" toJunction="4way_17"/>
<trip id="328" depart="96.4648" fromJunction="3way_58" toJunction="3way_23"/>
<trip id="329" depart="96.7589" fromJunction="3way_8" toJunction="4way_9"/>
<trip id="330" depart="97.053" fromJunction="3way_32" toJunction="4way_43"/>
<trip id="331" depart="97.3471" fromJunction="4way_27" toJunction="4way_12"/>
<trip id="332" depart="97.6412" fromJunction="4way_17" toJunction="3way_8"/>
<trip id="333" depart="97.93529999999998" fromJunction="3way_5" toJunction="4way_11"/>
<trip id="334" depart="98.22939999999998" fromJunction="4way_35" toJunction="4way_21"/>
<trip id="335" depart="98.52349999999998" fromJunction="4way_26" toJunction="4way_20"/>
<trip id="336" depart="98.81759999999998" fromJunction="4way_9" toJunction="3way_15"/>
<trip id="337" depart="99.11169999999998" fromJunction="3way_40" toJunction="4way_9"/>
<trip id="338" depart="99.40579999999999" fromJunction="4way_28" toJunction="3way_2"/>
<trip id="339" depart="99.69989999999999" fromJunction="4way_11" toJunction="3way_15"/>
<trip id="340" depart="99.99399999999999" fromJunction="4way_27" toJunction="4way_12"/>
<trip id="341" depart="100.28809999999999" fromJunction="3way_15" toJunction="4way_38"/>
<trip id="342" depart="100.58219999999999" fromJunction="3way_2" toJunction="4way_45"/>
<trip id="343" depart="100.87629999999999" fromJunction="4way_9" toJunction="4way_26"/>
<trip id="344" depart="101.17039999999999" fromJunction="3way_24" toJunction="4way_18"/>
<trip id="345" depart="101.46449999999999" fromJunction="3way_2" toJunction="3way_55"/>
<trip id="346" depart="101.75859999999999" fromJunction="4way_29" toJunction="4way_18"/>
<trip id="347" depart="102.05269999999999" fromJunction="3way_61" toJunction="3way_16"/>
<trip id="348" depart="102.34679999999999" fromJunction="3way_6" toJunction="3way_5"/>
<trip id="349" depart="102.64089999999999" fromJunction="3way_15" toJunction="3way_61"/>
<trip id="350" depart="102.93499999999999" fromJunction="3way_4" toJunction="3way_59"/>
<trip id="351" depart="103.22909999999999" fromJunction="4way_37" toJunction="3way_4"/>
<trip id="352" depart="103.52319999999999" fromJunction="4way_34" toJunction="3way_39"/>
<trip id="353" depart="103.81729999999999" fromJunction="4way_33" toJunction="4way_44"/>
<trip id="354" depart="104.11139999999999" fromJunction="3way_55" toJunction="3way_39"/>
<trip id="355" depart="104.40549999999999" fromJunction="4way_18" toJunction="4way_17"/>
<trip id="356" depart="104.69959999999999" fromJunction="4way_44" toJunction="3way_32"/>