<?xml version="1.0" encoding="UTF-8"?>
<edges xmlns:xsi="http://www.w3.org/2001/XMLSchema-instance" xsi:noNamespaceSchemaLocation="http://sumo.dlr.de/xsd/edges_file.xsd">
    <edge from="3way_1" id="1_3way_1to3way_2" to="3way_2" spreadType="roadCenter" numLanes="1" priority="1"/>
    <edge from="3way_2" id="1_3way_2to3way_1" to="3way_1" spreadType="roadCenter" numLanes="1" priority="1"/>
    <edge from="3way_1" id="2_3way_1to3way_25" to="3way_25" spreadType="roadCenter" numLanes="1" priority="1" shape="100.00,0.00 0.00,0.00 0.00,-100.00"/>
    <edge from="3way_25" id="2_3way_25to3way_1" to="3way_1" spreadType="roadCenter" numLanes="1" priority="1" shape="0.00,-100.00 0.00,0.00 100.00,0.00"/>
    <edge from="3way_1" id="3_3way_1to4way_26" to="4way_26" spreadType="roadCenter" numLanes="1" priority="0"/>
    <edge from="4way_26" id="3_4way_26to3way_1" to="3way_1" spreadType="roadCenter" numLanes="1" priority="0"/>
    <edge from="3way_10" id="4_3way_10to3way_11" to="3way_11" spreadType="roadCenter" numLanes="1" priority="1"/>
    <edge from="3way_11" id="4_3way_11to3way_10" to="3way_10" spreadType="roadCenter" numLanes="1" priority="1"/>
    <edge from="3way_10" id="5_3way_10to3way_9" to="3way_9" spreadType="roadCenter" numLanes="1" priority="1"/>
    <edge from="3way_9" id="5_3way_9to3way_10" to="3way_10" spreadType="roadCenter" numLanes="1" priority="1"/>
    <edge from="3way_10" id="6_3way_10to4way_35" to="4way_35" spreadType="roadCenter" numLanes="1" priority="0"/>
    <edge from="4way_35" id="6_4way_35to3way_10" to="3way_10" spreadType="roadCenter" numLanes="1" priority="0"/>
    <edge from="3way_100" id="7_3way_100to3way_125" to="3way_125" spreadType="roadCenter" numLanes="1" priority="1"/>
    <edge from="3way_125" id="7_3way_125to3way_100" to="3way_100" spreadType="roadCenter" numLanes="1" priority="1"/>
    <edge from="3way_100" id="8_3way_100to3way_75" to="3way_75" spreadType="roadCenter" numLanes="1" priority="1"/>
    <edge from="3way_75" id="8_3way_75to3way_100" to="3way_100" spreadType="roadCenter" numLanes="1" priority="1"/>
    <edge from="3way_100" id="9_3way_100to4way_101" to="4way_101" spreadType="roadCenter" numLanes="1" priority="0"/>
    <edge from="4way_101" id="9_4way_101to3way_100" to="3way_100" spreadType="roadCenter" numLanes="1" priority="0"/>
    <edge from="3way_11" id="10_3way_11to3way_12" to="3way_12" spreadType="roadCenter" numLanes="1" priority="1"/>
    <edge from="3way_12" id="10_3way_12to3way_11" to="3way_11" spreadType="roadCenter" numLanes="1" priority="1"/>
    <edge from="3way_11" id="11_3way_11to4way_36" to="4way_36" spreadType="roadCenter" numLanes="1" priority="0"/>
    <edge from="4way_36" id="11_4way_36to3way_11" to="3way_11" spreadType="roadCenter" numLanes="1" priority="0"/>
    <edge from="3way_12" id="12_3way_12to3way_13" to="3way_13" spreadType="roadCenter" numLanes="1" priority="1"/>
    <edge from="3way_13" id="12_3way_13to3way_12" to="3way_12" spreadType="roadCenter" numLanes="1" priority="1"/>
    <edge from="3way_12" id="13_3way_12to4way_37" to="4way_37" spreadType="roadCenter" numLanes="1" priority="0"/>
    <edge from="4way_37" id="13_4way_37to3way_12" to="3way_12" spreadType="roadCenter" numLanes="1" priority="0"/>
    <edge from="3way_124" id="14_3way_124to3way_149" to="3way_149" spreadType="roadCenter" numLanes="1" priority="1"/>
    <edge from="3way_149" id="14_3way_149to3way_124" to="3way_124" spreadType="roadCenter" numLanes="1" priority="1"/>
    <edge from="3way_124" id="15_3way_124to3way_99" to="3way_99" spreadType="roadCenter" numLanes="1" priority="1"/>
    <edge from="3way_99" id="15_3way_99to3way_124" to="3way_124" spreadType="roadCenter" numLanes="1" priority="1"/>
    <edge from="3way_124" id="16_3way_124to4way_123" to="4way_123" spreadType="roadCenter" numLanes="1" priority="0"/>
    <edge from="4way_123" id="16_4way_123to3way_124" to="3way_124" spreadType="roadCenter" numLanes="1" priority="0"/>
    <edge from="3way_125" id="17_3way_125to3way_150" to="3way_150" spreadType="roadCenter" numLanes="1" priority="1"/>
    <edge from="3way_150" id="17_3way_150to3way_125" to="3way_125" spreadType="roadCenter" numLanes="1" priority="1"/>
    <edge from="3way_125" id="18_3way_125to4way_126" to="4way_126" spreadType="roadCenter" numLanes="1" priority="0"/>
    <edge from="4way_126" id="18_4way_126to3way_125" to="3way_125" spreadType="roadCenter" numLanes="1" priority="0"/>
    <edge from="3way_13" id="19_3way_13to3way_14" to="3way_14" spreadType="roadCenter" numLanes="1" priority="1"/>
    <edge from="3way_14" id="19_3way_14to3way_13" to="3way_13" spreadType="roadCenter" numLanes="1" priority="1"/>
    <edge from="3way_13" id="20_3way_13to4way_38" to="4way_38" spreadType="roadCenter" numLanes="1" priority="0"/>
    <edge from="4way_38" id="20_4way_38to3way_13" to="3way_13" spreadType="roadCenter" numLanes="1" priority="0"/>
    <edge from="3way_14" id="21_3way_14to3way_15" to="3way_15" spreadType="roadCenter" numLanes="1" priority="1"/>
    <edge from="3way_15" id="21_3way_15to3way_14" to="3way_14" spreadType="roadCenter" numLanes="1" priority="1"/>
    <edge from="3way_14" id="22_3way_14to4way_39" to="4way_39" spreadType="roadCenter" numLanes="1" priority="0"/>
    <edge from="4way_39" id="22_4way_39to3way_14" to="3way_14" spreadType="roadCenter" numLanes="1" priority="0"/>
    <edge from="3way_149" id="23_3way_149to3way_174" to="3way_174" spreadType="roadCenter" numLanes="1" priority="1"/>
    <edge from="3way_174" id="23_3way_174to3way_149" to="3way_149" spreadType="roadCenter" numLanes="1" priority="1"/>
    <edge from="3way_149" id="24_3way_149to4way_148" to="4way_148" spreadType="roadCenter" numLanes="1" priority="0"/>
    <edge from="4way_148" id="24_4way_148to3way_149" to="3way_149" spreadType="roadCenter" numLanes="1" priority="0"/>
    <edge from="3way_15" id="25_3way_15to3way_16" to="3way_16" spreadType="roadCenter" numLanes="1" priority="1"/>
    <edge from="3way_16" id="25_3way_16to3way_15" to="3way_15" spreadType="roadCenter" numLanes="1" priority="1"/>
    <edge from="3way_15" id="26_3way_15to4way_40" to="4way_40" spreadType="roadCenter" numLanes="1" priority="0"/>
    <edge from="4way_40" id="26_4way_40to3way_15" to="3way_15" spreadType="roadCenter" numLanes="1" priority="0"/>
    <edge from="3way_150" id="27_3way_150to3way_175" to="3way_175" spreadType="roadCenter" numLanes="1" priority="1"/>
    <edge from="3way_175" id="27_3way_175to3way_150" to="3way_150" spreadType="roadCenter" numLanes="1" priority="1"/>
    <edge from="3way_150" id="28_3way_150to4way_151" to="4way_151" spreadType="roadCenter" numLanes="1" priority="0"/>
    <edge from="4way_151" id="28_4way_151to3way_150" to="3way_150" spreadType="roadCenter" numLanes="1" priority="0"/>
    <edge from="3way_16" id="29_3way_16to3way_17" to="3way_17" spreadType="roadCenter" numLanes="1" priority="1"/>
    <edge from="3way_17" id="29_3way_17to3way_16" to="3way_16" spreadType="roadCenter" numLanes="1" priority="1"/>
    <edge from="3way_16" id="30_3way_16to4way_41" to="4way_41" spreadType="roadCenter" numLanes="1" priority="0"/>
    <edge from="4way_41" id="30_4way_41to3way_16" to="3way_16" spreadType="roadCenter" numLanes="1" priority="0"/>
    <edge from="3way_17" id="31_3way_17to3way_18" to="3way_18" spreadType="roadCenter" numLanes="1" priority="1"/>
    <edge from="3way_18" id="31_3way_18to3way_17" to="3way_17" spreadType="roadCenter" numLanes="1" priority="1"/>
    <edge from="3way_17" id="32_3way_17to4way_42" to="4way_42" spreadType="roadCenter" numLanes="1" priority="0"/>
    <edge from="4way_42" id="32_4way_42to3way_17" to="3way_17" spreadType="roadCenter" numLanes="1" priority="0"/>
    <edge from="3way_174" id="33_3way_174to3way_199" to="3way_199" spreadType="roadCenter" numLanes="1" priority="1"/>
    <edge from="3way_199" id="33_3way_199to3way_174" to="3way_174" spreadType="roadCenter" numLanes="1" priority="1"/>
    <edge from="3way_174" id="34_3way_174to4way_173" to="4way_173" spreadType="roadCenter" numLanes="1" priority="0"/>
    <edge from="4way_173" id="34_4way_173to3way_174" to="3way_174" spreadType="roadCenter" numLanes="1" priority="0"/>
    <edge from="3way_175" id="35_3way_175to3way_200" to="3way_200" spreadType="roadCenter" numLanes="1" priority="1"/>
    <edge from="3way_200" id="35_3way_200to3way_175" to="3way_175" spreadType="roadCenter" numLanes="1" priority="1"/>
    <edge from="3way_175" id="36_3way_175to4way_176" to="4way_176" spreadType="roadCenter" numLanes="1" priority="0"/>
    <edge from="4way_176" id="36_4way_176to3way_175" to="3way_175" spreadType="roadCenter" numLanes="1" priority="0"/>
    <edge from="3way_18" id="37_3way_18to3way_19" to="3way_19" spreadType="roadCenter" numLanes="1" priority="1"/>
    <edge from="3way_19" id="37_3way_19to3way_18" to="3way_18" spreadType="roadCenter" numLanes="1" priority="1"/>
    <edge from="3way_18" id="38_3way_18to4way_43" to="4way_43" spreadType="roadCenter" numLanes="1" priority="0"/>
    <edge from="4way_43" id="38_4way_43to3way_18" to="3way_18" spreadType="roadCenter" numLanes="1" priority="0"/>
    <edge from="3way_19" id="39_3way_19to3way_20" to="3way_20" spreadType="roadCenter" numLanes="1" priority="1"/>
    <edge from="3way_20" id="39_3way_20to3way_19" to="3way_19" spreadType="roadCenter" numLanes="1" priority="1"/>
    <edge from="3way_19" id="40_3way_19to4way_44" to="4way_44" spreadType="roadCenter" numLanes="1" priority="0"/>
    <edge from="4way_44" id="40_4way_44to3way_19" to="3way_19" spreadType="roadCenter" numLanes="1" priority="0"/>
    <edge from="3way_199" id="41_3way_199to3way_224" to="3way_224" spreadType="roadCenter" numLanes="1" priority="1"/>
    <edge from="3way_224" id="41_3way_224to3way_199" to="3way_199" spreadType="roadCenter" numLanes="1" priority="1"/>
    <edge from="3way_199" id="42_3way_199to4way_198" to="4way_198" spreadType="roadCenter" numLanes="1" priority="0"/>
    <edge from="4way_198" id="42_4way_198to3way_199" to="3way_199" spreadType="roadCenter" numLanes="1" priority="0"/>
    <edge from="3way_2" id="43_3way_2to3way_3" to="3way_3" spreadType="roadCenter" numLanes="1" priority="1"/>
    <edge from="3way_3" id="43_3way_3to3way_2" to="3way_2" spreadType="roadCenter" numLanes="1" priority="1"/>
    <edge from="3way_2" id="44_3way_2to4way_27" to="4way_27" spreadType="roadCenter" numLanes="1" priority="0"/>
    <edge from="4way_27" id="44_4way_27to3way_2" to="3way_2" spreadType="roadCenter" numLanes="1" priority="0"/>
    <edge from="3way_20" id="45_3way_20to3way_21" to="3way_21" spreadType="roadCenter" numLanes="1" priority="1"/>
    <edge from="3way_21" id="45_3way_21to3way_20" to="3way_20" spreadType="roadCenter" numLanes="1" priority="1"/>
    <edge from="3way_20" id="46_3way_20to4way_45" to="4way_45" spreadType="roadCenter" numLanes="1" priority="0"/>
    <edge from="4way_45" id="46_4way_45to3way_20" to="3way_20" spreadType="roadCenter" numLanes="1" priority="0"/>
    <edge from="3way_200" id="47_3way_200to3way_225" to="3way_225" spreadType="roadCenter" numLanes="1" priority="1"/>
    <edge from="3way_225" id="47_3way_225to3way_200" to="3way_200" spreadType="roadCenter" numLanes="1" priority="1"/>
    <edge from="3way_200" id="48_3way_200to4way_201" to="4way_201" spreadType="roadCenter" numLanes="1" priority="0"/>
    <edge from="4way_201" id="48_4way_201to3way_200" to="3way_200" spreadType="roadCenter" numLanes="1" priority="0"/>
    <edge from="3way_21" id="49_3way_21to3way_22" to="3way_22" spreadType="roadCenter" numLanes="1" priority="1"/>
    <edge from="3way_22" id="49_3way_22to3way_21" to="3way_21" spreadType="roadCenter" numLanes="1" priority="1"/>
    <edge from="3way_21" id="50_3way_21to4way_46" to="4way_46" spreadType="roadCenter" numLanes="1" priority="0"/>
    <edge from="4way_46" id="50_4way_46to3way_21" to="3way_21" spreadType="roadCenter" numLanes="1" priority="0"/>
    <edge from="3way_22" id="51_3way_22to3way_23" to="3way_23" spreadType="roadCenter" numLanes="1" priority="1"/>
    <edge from="3way_23" id="51_3way_23to3way_22" to="3way_22" spreadType="roadCenter" numLanes="1" priority="1"/>
    <edge from="3way_22" id="52_3way_22to4way_47" to="4way_47" spreadType="roadCenter" numLanes="1" priority="0"/>
    <edge from="4way_47" id="52_4way_47to3way_22" to="3way_22" spreadType="roadCenter" numLanes="1" priority="0"/>
    <edge from="3way_224" id="53_3way_224to3way_249" to="3way_249" spreadType="roadCenter" numLanes="1" priority="1"/>
    <edge from="3way_249" id="53_3way_249to3way_224" to="3way_224" spreadType="roadCenter" numLanes="1" priority="1"/>
    <edge from="3way_224" id="54_3way_224to4way_223" to="4way_223" spreadType="roadCenter" numLanes="1" priority="0"/>
    <edge from="4way_223" id="54_4way_223to3way_224" to="3way_224" spreadType="roadCenter" numLanes="1" priority="0"/>
    <edge from="3way_225" id="55_3way_225to3way_250" to="3way_250" spreadType="roadCenter" numLanes="1" priority="1"/>
    <edge from="3way_250" id="55_3way_250to3way_225" to="3way_225" spreadType="roadCenter" numLanes="1" priority="1"/>
    <edge from="3way_225" id="56_3way_225to4way_226" to="4way_226" spreadType="roadCenter" numLanes="1" priority="0"/>
    <edge from="4way_226" id="56_4way_226to3way_225" to="3way_225" spreadType="roadCenter" numLanes="1" priority="0"/>
    <edge from="3way_23" id="57_3way_23to3way_49" to="3way_49" spreadType="roadCenter" numLanes="1" priority="1" shape="2300.00,0.00 2400.00,0.00 2400.00,-100.00"/>
    <edge from="3way_49" id="57_3way_49to3way_23" to="3way_23" spreadType="roadCenter" numLanes="1" priority="1" shape="2400.00,-100.00 2400.00,0.00 2300.00,0.00"/>
    <edge from="3way_23" id="58_3way_23to4way_48" to="4way_48" spreadType="roadCenter" numLanes="1" priority="0"/>
    <edge from="4way_48" id="58_4way_48to3way_23" to="3way_23" spreadType="roadCenter" numLanes="1" priority="0"/>
    <edge from="3way_249" id="59_3way_249to3way_274" to="3way_274" spreadType="roadCenter" numLanes="1" priority="1"/>
    <edge from="3way_274" id="59_3way_274to3way_249" to="3way_249" spreadType="roadCenter" numLanes="1" priority="1"/>
    <edge from="3way_249" id="60_3way_249to4way_248" to="4way_248" spreadType="roadCenter" numLanes="1" priority="0"/>
    <edge from="4way_248" id="60_4way_248to3way_249" to="3way_249" spreadType="roadCenter" numLanes="1" priority="0"/>
    <edge from="3way_25" id="61_3way_25to3way_50" to="3way_50" spreadType="roadCenter" numLanes="1" priority="1"/>
    <edge from="3way_50" id="61_3way_50to3way_25" to="3way_25" spreadType="roadCenter" numLanes="1" priority="1"/>
    <edge from="3way_25" id="62_3way_25to4way_26" to="4way_26" spreadType="roadCenter" numLanes="1" priority="0"/>
    <edge from="4way_26" id="62_4way_26to3way_25" to="3way_25" spreadType="roadCenter" numLanes="1" priority="0"/>
    <edge from="3way_250" id="63_3way_250to3way_275" to="3way_275" spreadType="roadCenter" numLanes="1" priority="1"/>
    <edge from="3way_275" id="63_3way_275to3way_250" to="3way_250" spreadType="roadCenter" numLanes="1" priority="1"/>
    <edge from="3way_250" id="64_3way_250to4way_251" to="4way_251" spreadType="roadCenter" numLanes="1" priority="0"/>
    <edge from="4way_251" id="64_4way_251to3way_250" to="3way_250" spreadType="roadCenter" numLanes="1" priority="0"/>
    <edge from="3way_274" id="65_3way_274to3way_299" to="3way_299" spreadType="roadCenter" numLanes="1" priority="1"/>
    <edge from="3way_299" id="65_3way_299to3way_274" to="3way_274" spreadType="roadCenter" numLanes="1" priority="1"/>
    <edge from="3way_274" id="66_3way_274to4way_273" to="4way_273" spreadType="roadCenter" numLanes="1" priority="0"/>
    <edge from="4way_273" id="66_4way_273to3way_274" to="3way_274" spreadType="roadCenter" numLanes="1" priority="0"/>
    <edge from="3way_275" id="67_3way_275to3way_300" to="3way_300" spreadType="roadCenter" numLanes="1" priority="1"/>
    <edge from="3way_300" id="67_3way_300to3way_275" to="3way_275" spreadType="roadCenter" numLanes="1" priority="1"/>
    <edge from="3way_275" id="68_3way_275to4way_276" to="4way_276" spreadType="roadCenter" numLanes="1" priority="0"/>
    <edge from="4way_276" id="68_4way_276to3way_275" to="3way_275" spreadType="roadCenter" numLanes="1" priority="0"/>
    <edge from="3way_299" id="69_3way_299to3way_324" to="3way_324" spreadType="roadCenter" numLanes="1" priority="1"/>
    <edge from="3way_324" id="69_3way_324to3way_299" to="3way_299" spreadType="roadCenter" numLanes="1" priority="1"/>
    <edge from="3way_299" id="70_3way_299to4way_298" to="4way_298" spreadType="roadCenter" numLanes="1" priority="0"/>
    <edge from="4way_298" id="70_4way_298to3way_299" to="3way_299" spreadType="roadCenter" numLanes="1" priority="0"/>
    <edge from="3way_3" id="71_3way_3to3way_4" to="3way_4" spreadType="roadCenter" numLanes="1" priority="1"/>
    <edge from="3way_4" id="71_3way_4to3way_3" to="3way_3" spreadType="roadCenter" numLanes="1" priority="1"/>
    <edge from="3way_3" id="72_3way_3to4way_28" to="4way_28" spreadType="roadCenter" numLanes="1" priority="0"/>
    <edge from="4way_28" id="72_4way_28to3way_3" to="3way_3" spreadType="roadCenter" numLanes="1" priority="0"/>
    <edge from="3way_300" id="73_3way_300to3way_325" to="3way_325" spreadType="roadCenter" numLanes="1" priority="1"/>
    <edge from="3way_325" id="73_3way_325to3way_300" to="3way_300" spreadType="roadCenter" numLanes="1" priority="1"/>
    <edge from="3way_300" id="74_3way_300to4way_301" to="4way_301" spreadType="roadCenter" numLanes="1" priority="0"/>
    <edge from="4way_301" id="74_4way_301to3way_300" to="3way_300" spreadType="roadCenter" numLanes="1" priority="0"/>
    <edge from="3way_324" id="75_3way_324to3way_349" to="3way_349" spreadType="roadCenter" numLanes="1" priority="1"/>
    <edge from="3way_349" id="75_3way_349to3way_324" to="3way_324" spreadType="roadCenter" numLanes="1" priority="1"/>
    <edge from="3way_324" id="76_3way_324to4way_323" to="4way_323" spreadType="roadCenter" numLanes="1" priority="0"/>
    <edge from="4way_323" id="76_4way_323to3way_324" to="3way_324" spreadType="roadCenter" numLanes="1" priority="0"/>
    <edge from="3way_325" id="77_3way_325to3way_350" to="3way_350" spreadType="roadCenter" numLanes="1" priority="1"/>
    <edge from="3way_350" id="77_3way_350to3way_325" to="3way_325" spreadType="roadCenter" numLanes="1" priority="1"/>
    <edge from="3way_325" id="78_3way_325to4way_326" to="4way_326" spreadType="roadCenter" numLanes="1" priority="0"/>
    <edge from="4way_326" id="78_4way_326to3way_325" to="3way_325" spreadType="roadCenter" numLanes="1" priority="0"/>
    <edge from="3way_349" id="79_3way_349to3way_374" to="3way_374" spreadType="roadCenter" numLanes="1" priority="1"/>
    <edge from="3way_374" id="79_3way_374to3way_349" to="3way_349" spreadType="roadCenter" numLanes="1" priority="1"/>
    <edge from="3way_349" id="80_3way_349to4way_348" to="4way_348" spreadType="roadCenter" numLanes="1" priority="0"/>
    <edge from="4way_348" id="80_4way_348to3way_349" to="3way_349" spreadType="roadCenter" numLanes="1" priority="0"/>
    <edge from="3way_350" id="81_3way_350to3way_375" to="3way_375" spreadType="roadCenter" numLanes="1" priority="1"/>
    <edge from="3way_375" id="81_3way_375to3way_350" to="3way_350" spreadType="roadCenter" numLanes="1" priority="1"/>
    <edge from="3way_350" id="82_3way_350to4way_351" to="4way_351" spreadType="roadCenter" numLanes="1" priority="0"/>
    <edge from="4way_351" id="82_4way_351to3way_350" to="3way_350" spreadType="roadCenter" numLanes="1" priority="0"/>
    <edge from="3way_374" id="83_3way_374to3way_399" to="3way_399" spreadType="roadCenter" numLanes="1" priority="1"/>
    <edge from="3way_399" id="83_3way_399to3way_374" to="3way_374" spreadType="roadCenter" numLanes="1" priority="1"/>
    <edge from="3way_374" id="84_3way_374to4way_373" to="4way_373" spreadType="roadCenter" numLanes="1" priority="0"/>
    <edge from="4way_373" id="84_4way_373to3way_374" to="3way_374" spreadType="roadCenter" numLanes="1" priority="0"/>
    <edge from="3way_375" id="85_3way_375to3way_400" to="3way_400" spreadType="roadCenter" numLanes="1" priority="1"/>
    <edge from="3way_400" id="85_3way_400to3way_375" to="3way_375" spreadType="roadCenter" numLanes="1" priority="1"/>
    <edge from="3way_375" id="86_3way_375to4way_376" to="4way_376" spreadType="roadCenter" numLanes="1" priority="0"/>
    <edge from="4way_376" id="86_4way_376to3way_375" to="3way_375" spreadType="roadCenter" numLanes="1" priority="0"/>
    <edge from="3way_399" id="87_3way_399to3way_424" to="3way_424" spreadType="roadCenter" numLanes="1" priority="1"/>
    <edge from="3way_424" id="87_3way_424to3way_399" to="3way_399" spreadType="roadCenter" numLanes="1" priority="1"/>
    <edge from="3way_399" id="88_3way_399to4way_398" to="4way_398" spreadType="roadCenter" numLanes="1" priority="0"/>
    <edge from="4way_398" id="88_4way_398to3way_399" to="3way_399" spreadType="roadCenter" numLanes="1" priority="0"/>
    <edge from="3way_4" id="89_3way_4to3way_5" to="3way_5" spreadType="roadCenter" numLanes="1" priority="1"/>
    <edge from="3way_5" id="89_3way_5to3way_4" to="3way_4" spreadType="roadCenter" numLanes="1" priority="1"/>
    <edge from="3way_4" id="90_3way_4to4way_29" to="4way_29" spreadType="roadCenter" numLanes="1" priority="0"/>
    <edge from="4way_29" id="90_4way_29to3way_4" to="3way_4" spreadType="roadCenter" numLanes="1" priority="0"/>
    <edge from="3way_400" id="91_3way_400to3way_425" to="3way_425" spreadType="roadCenter" numLanes="1" priority="1"/>
    <edge from="3way_425" id="91_3way_425to3way_400" to="3way_400" spreadType="roadCenter" numLanes="1" priority="1"/>
    <edge from="3way_400" id="92_3way_400to4way_401" to="4way_401" spreadType="roadCenter" numLanes="1" priority="0"/>
    <edge from="4way_401" id="92_4way_401to3way_400" to="3way_400" spreadType="roadCenter" numLanes="1" priority="0"/>
    <edge from="3way_424" id="93_3way_424to3way_449" to="3way_449" spreadType="roadCenter" numLanes="1" priority="1"/>
    <edge from="3way_449" id="93_3way_449to3way_424" to="3way_424" spreadType="roadCenter" numLanes="1" priority="1"/>
    <edge from="3way_424" id="94_3way_424to4way_423" to="4way_423" spreadType="roadCenter" numLanes="1" priority="0"/>
    <edge from="4way_423" id="94_4way_423to3way_424" to="3way_424" spreadType="roadCenter" numLanes="1" priority="0"/>
    <edge from="3way_425" id="95_3way_425to3way_450" to="3way_450" spreadType="roadCenter" numLanes="1" priority="1"/>
    <edge from="3way_450" id="95_3way_450to3way_425" to="3way_425" spreadType="roadCenter" numLanes="1" priority="1"/>
    <edge from="3way_425" id="96_3way_425to4way_426" to="4way_426" spreadType="roadCenter" numLanes="1" priority="0"/>
    <edge from="4way_426" id="96_4way_426to3way_425" to="3way_425" spreadType="roadCenter" numLanes="1" priority="0"/>
    <edge from="3way_449" id="97_3way_449to3way_474" to="3way_474" spreadType="roadCenter" numLanes="1" priority="1"/>
    <edge from="3way_474" id="97_3way_474to3way_449" to="3way_449" spreadType="roadCenter" numLanes="1" priority="1"/>
    <edge from="3way_449" id="98_3way_449to4way_448" to="4way_448" spreadType="roadCenter" numLanes="1" priority="0"/>
    <edge from="4way_448" id="98_4way_448to3way_449" to="3way_449" spreadType="roadCenter" numLanes="1" priority="0"/>
    <edge from="3way_450" id="99_3way_450to3way_475" to="3way_475" spreadType="roadCenter" numLanes="1" priority="1"/>
    <edge from="3way_475" id="99_3way_475to3way_450" to="3way_450" spreadType="roadCenter" numLanes="1" priority="1"/>
    <edge from="3way_450" id="100_3way_450to4way_451" to="4way_451" spreadType="roadCenter" numLanes="1" priority="0"/>
    <edge from="4way_451" id="100_4way_451to3way_450" to="3way_450" spreadType="roadCenter" numLanes="1" priority="0"/>
    <edge from="3way_474" id="101_3way_474to3way_499" to="3way_499" spreadType="roadCenter" numLanes="1" priority="1"/>
    <edge from="3way_499" id="101_3way_499to3way_474" to="3way_474" spreadType="roadCenter" numLanes="1" priority="1"/>
    <edge from="3way_474" id="102_3way_474to4way_473" to="4way_473" spreadType="roadCenter" numLanes="1" priority="0"/>
    <edge from="4way_473" id="102_4way_473to3way_474" to="3way_474" spreadType="roadCenter" numLanes="1" priority="0"/>
    <edge from="3way_475" id="103_3way_475to3way_500" to="3way_500" spreadType="roadCenter" numLanes="1" priority="1"/>
    <edge from="3way_500" id="103_3way_500to3way_475" to="3way_475" spreadType="roadCenter" numLanes="1" priority="1"/>
    <edge from="3way_475" id="104_3way_475to4way_476" to="4way_476" spreadType="roadCenter" numLanes="1" priority="0"/>
    <edge from="4way_476" id="104_4way_476to3way_475" to="3way_475" spreadType="roadCenter" numLanes="1" priority="0"/>
    <edge from="3way_49" id="105_3way_49to3way_74" to="3way_74" spreadType="roadCenter" numLanes="1" priority="1"/>
    <edge from="3way_74" id="105_3way_74to3way_49" to="3way_49" spreadType="roadCenter" numLanes="1" priority="1"/>
    <edge from="3way_49" id="106_3way_49to4way_48" to="4way_48" spreadType="roadCenter" numLanes="1" priority="0"/>
    <edge from="4way_48" id="106_4way_48to3way_49" to="3way_49" spreadType="roadCenter" numLanes="1" priority="0"/>
    <edge from="3way_499" id="107_3way_499to3way_524" to="3way_524" spreadType="roadCenter" numLanes="1" priority="1"/>
    <edge from="3way_524" id="107_3way_524to3way_499" to="3way_499" spreadType="roadCenter" numLanes="1" priority="1"/>
    <edge from="3way_499" id="108_3way_499to4way_498" to="4way_498" spreadType="roadCenter" numLanes="1" priority="0"/>
    <edge from="4way_498" id="108_4way_498to3way_499" to="3way_499" spreadType="roadCenter" numLanes="1" priority="0"/>
    <edge from="3way_5" id="109_3way_5to3way_6" to="3way_6" spreadType="roadCenter" numLanes="1" priority="1"/>
    <edge from="3way_6" id="109_3way_6to3way_5" to="3way_5" spreadType="roadCenter" numLanes="1" priority="1"/>
    <edge from="3way_5" id="110_3way_5to4way_30" to="4way_30" spreadType="roadCenter" numLanes="1" priority="0"/>
    <edge from="4way_30" id="110_4way_30to3way_5" to="3way_5" spreadType="roadCenter" numLanes="1" priority="0"/>
    <edge from="3way_50" id="111_3way_50to3way_75" to="3way_75" spreadType="roadCenter" numLanes="1" priority="1"/>
    <edge from="3way_75" id="111_3way_75to3way_50" to="3way_50" spreadType="roadCenter" numLanes="1" priority="1"/>
    <edge from="3way_50" id="112_3way_50to4way_51" to="4way_51" spreadType="roadCenter" numLanes="1" priority="0"/>
    <edge from="4way_51" id="112_4way_51to3way_50" to="3way_50" spreadType="roadCenter" numLanes="1" priority="0"/>
    <edge from="3way_500" id="113_3way_500to3way_525" to="3way_525" spreadType="roadCenter" numLanes="1" priority="1"/>
    <edge from="3way_525" id="113_3way_525to3way_500" to="3way_500" spreadType="roadCenter" numLanes="1" priority="1"/>
    <edge from="3way_500" id="114_3way_500to4way_501" to="4way_501" spreadType="roadCenter" numLanes="1" priority="0"/>
    <edge from="4way_501" id="114_4way_501to3way_500" to="3way_500" spreadType="roadCenter" numLanes="1" priority="0"/>
    <edge from="3way_524" id="115_3way_524to3way_549" to="3way_549" spreadType="roadCenter" numLanes="1" priority="1"/>
    <edge from="3way_549" id="115_3way_549to3way_524" to="3way_524" spreadType="roadCenter" numLanes="1" priority="1"/>
    <edge from="3way_524" id="116_3way_524to4way_523" to="4way_523" spreadType="roadCenter" numLanes="1" priority="0"/>
    <edge from="4way_523" id="116_4way_523to3way_524" to="3way_524" spreadType="roadCenter" numLanes="1" priority="0"/>
    <edge from="3way_525" id="117_3way_525to3way_550" to="3way_550" spreadType="roadCenter" numLanes="1" priority="1"/>
    <edge from="3way_550" id="117_3way_550to3way_525" to="3way_525" spreadType="roadCenter" numLanes="1" priority="1"/>
    <edge from="3way_525" id="118_3way_525to4way_526" to="4way_526" spreadType="roadCenter" numLanes="1" priority="0"/>
    <edge from="4way_526" id="118_4way_526to3way_525" to="3way_525" spreadType="roadCenter" numLanes="1" priority="0"/>
    <edge from="3way_549" id="119_3way_549to3way_574" to="3way_574" spreadType="roadCenter" numLanes="1" priority="1"/>
    <edge from="3way_574" id="119_3way_574to3way_549" to="3way_549" spreadType="roadCenter" numLanes="1" priority="1"/>
    <edge from="3way_549" id="120_3way_549to4way_548" to="4way_548" spreadType="roadCenter" numLanes="1" priority="0"/>
    <edge from="4way_548" id="120_4way_548to3way_549" to="3way_549" spreadType="roadCenter" numLanes="1" priority="0"/>
    <edge from="3way_550" id="121_3way_550to3way_575" to="3way_575" spreadType="roadCenter" numLanes="1" priority="1"/>
    <edge from="3way_575" id="121_3way_575to3way_550" to="3way_550" spreadType="roadCenter" numLanes="1" priority="1"/>
    <edge from="3way_550" id="122_3way_550to4way_551" to="4way_551" spreadType="roadCenter" numLanes="1" priority="0"/>
    <edge from="4way_551" id="122_4way_551to3way_550" to="3way_550" spreadType="roadCenter" numLanes="1" priority="0"/>
    <edge from="3way_574" id="123_3way_574to3way_599" to="3way_599" spreadType="roadCenter" numLanes="1" priority="1"/>
    <edge from="3way_599" id="123_3way_599to3way_574" to="3way_574" spreadType="roadCenter" numLanes="1" priority="1"/>
    <edge from="3way_574" id="124_3way_574to4way_573" to="4way_573" spreadType="roadCenter" numLanes="1" priority="0"/>
    <edge from="4way_573" id="124_4way_573to3way_574" to="3way_574" spreadType="roadCenter" numLanes="1" priority="0"/>
    <edge from="3way_601" id="125_3way_601to3way_575" to="3way_575" spreadType="roadCenter" numLanes="1" priority="1" shape="100.00,-2400.00 0.00,-2400.00 0.00,-2300.00"/>
    <edge from="3way_575" id="125_3way_575to3way_601" to="3way_601" spreadType="roadCenter" numLanes="1" priority="1" shape="0.00,-2300.00 0.00,-2400.00 100.00,-2400.00"/>
    <edge from="3way_575" id="126_3way_575to4way_576" to="4way_576" spreadType="roadCenter" numLanes="1" priority="0"/>