<?xml version="1.0" encoding="UTF-8"?>
<nodes xmlns:xsi="http://www.w3.org/2001/XMLSchema-instance" xsi:noNamespaceSchemaLocation="http://sumo.dlr.de/xsd/nodes_file.xsd">
    <node id="3way_1" x="200.00" y="0.00" type="traffic_light" tlLayout="opposites"/>
    <node id="3way_10" x="0.00" y="-200.00" type="traffic_light" tlLayout="opposites"/>
    <node id="3way_19" x="1800.00" y="-200.00" type="traffic_light" tlLayout="opposites"/>
    <node id="3way_2" x="400.00" y="0.00" type="traffic_light" tlLayout="opposites"/>
    <node id="3way_20" x="0.00" y="-400.00" type="traffic_light" tlLayout="opposites"/>
    <node id="3way_29" x="1800.00" y="-400.00" type="traffic_light" tlLayout="opposites"/>
    <node id="3way_3" x="600.00" y="0.00" type="traffic_light" tlLayout="opposites"/>
    <node id="3way_30" x="0.00" y="-600.00" type="traffic_light" tlLayout="opposites"/>
    <node id="3way_39" x="1800.00" y="-600.00" type="traffic_light" tlLayout="opposites"/>
    <node id="3way_4" x="800.00" y="0.00" type="traffic_light" tlLayout="opposites"/>
    <node id="3way_40" x="0.00" y="-800.00" type="traffic_light" tlLayout="opposites"/>
    <node id="3way_49" x="1800.00" y="-800.00" type="traffic_light" tlLayout="opposites"/>
    <node id="3way_5" x="1000.00" y="0.00" type="traffic_light" tlLayout="opposites"/>
    <node id="3way_50" x="0.00" y="-1000.00" type="traffic_light" tlLayout="opposites"/>
    <node id="3way_59" x="1800.00" y="-1000.00" type="traffic_light" tlLayout="opposites"/>
    <node id="3way_6" x="1200.00" y="0.00" type="traffic_light" tlLayout="opposites"/>
    <node id="3way_60" x="0.00" y="-1200.00" type="traffic_light" tlLayout="opposites"/>
    <node id="3way_69" x="1800.00" y="-1200.00" type="traffic_light" tlLayout="opposites"/>
    <node id="3way_7" x="1400.00" y="0.00" type="traffic_light" tlLayout="opposites"/>
    <node id="3way_70" x="0.00" y="-1400.00" type="traffic_light" tlLayout="opposites"/>
    <node id="3way_79" x="1800.00" y="-1400.00" type="traffic_light" tlLayout="opposites"/>
    <node id="3way_8" x="1600.00" y="0.00" type="traffic_light" tlLayout="opposites"/>
    <node id="3way_80" x="0.00" y="-1600.00" type="traffic_light" tlLayout="opposites"/>
    <node id="3way_89" x="1800.00" y="-1600.00" type="traffic_light" tlLayout="opposites"/>
    <node id="3way_91" x="200.00" y="-1800.00" type="traffic_light" tlLayout="opposites"/>
    <node id="3way_92" x="400.00" y="-1800.00" type="traffic_light" tlLayout="opposites"/>
    <node id="3way_93" x="600.00" y="-1800.00" type="traffic_light" tlLayout="opposites"/>
    <node id="3way_94" x="800.00" y="-1800.00" type="traffic_light" tlLayout="opposites"/>
    <node id="3way_95" x="1000.00" y="-1800.00" type="traffic_light" tlLayout="opposites"/>
    <node id="3way_96" x="1200.00" y="-1800.00" type="traffic_light" tlLayout="opposites"/>
    <node id="3way_97" x="1400.00" y="-1800.00" type="traffic_light" tlLayout="opposites"/>
    <node id="3way_98" x="1600.00" y="-1800.00" type="traffic_light" tlLayout="opposites"/>
    <node id="4way_11" x="200.00" y="-200.00" type="traffic_light" tlLayout="opposites"/>
    <node id="4way_12" x="400.00" y="-200.00" type="traffic_light" tlLayout="opposites"/>
    <node id="4way_13" x="600.00" y="-200.00" type="traffic_light" tlLayout="opposites"/>
    <node id="4way_14" x="800.00" y="-200.00" type="traffic_light" tlLayout="opposites"/>
    <node id="4way_15" x="1000.00" y="-200.00" type="traffic_light" tlLayout="opposites"/>
    <node id="4way_16" x="1200.00" y="-200.00" type="traffic_light" tlLayout="opposites"/>
    <node id="4way_17" x="1400.00" y="-200.00" type="traffic_light" tlLayout="opposites"/>
    <node id="4way_18" x="1600.00" y="-200.00" type="traffic_light" tlLayout="opposites"/>
    <node id="4way_21" x="200.00" y="-400.00" type="traffic_light" tlLayout="opposites"/>
    <node id="4way_22" x="400.00" y="-400.00" type="traffic_light" tlLayout="opposites"/>
    <node id="4way_23" x="600.00" y="-400.00" type="traffic_light" tlLayout="opposites"/>
    <node id="4way_24" x="800.00" y="-400.00" type="traffic_light" tlLayout="opposites"/>
    <node id="4way_25" x="1000.00" y="-400.00" type="traffic_light" tlLayout="opposites"/>
    <node id="4way_26" x="1200.00" y="-400.00" type="traffic_light" tlLayout="opposites"/>
    <node id="4way_27" x="1400.00" y="-400.00" type="traffic_light" tlLayout="opposites"/>
    <node id="4way_28" x="1600.00" y="-400.00" type="traffic_light" tlLayout="opposites"/>
    <node id="4way_31" x="200.00" y="-600.00" type="traffic_light" tlLayout="opposites"/>
    <node id="4way_32" x="400.00" y="-600.00" type="traffic_light" tlLayout="opposites"/>
    <node id="4way_33" x="600.00" y="-600.00" type="traffic_light" tlLayout="opposites"/>
    <node id="4way_34" x="800.00" y="-600.00" type="traffic_light" tlLayout="opposites"/>
    <node id="4way_35" x="1000.00" y="-600.00" type="traffic_light" tlLayout="opposites"/>
    <node id="4way_36" x="1200.00" y="-600.00" type="traffic_light" tlLayout="opposites"/>
    <node id="4way_37" x="1400.00" y="-600.00" type="traffic_light" tlLayout="opposites"/>
    <node id="4way_38" x="1600.00" y="-600.00" type="traffic_light" tlLayout="opposites"/>
    <node id="4way_41" x="200.00" y="-800.00" type="traffic_light" tlLayout="opposites"/>
    <node id="4way_42" x="400.00" y="-800.00" type="traffic_light" tlLayout="opposites"/>
    <node id="4way_43" x="600.00" y="-800.00" type="traffic_light" tlLayout="opposites"/>
    <node id="4way_44" x="800.00" y="-800.00" type="traffic_light" tlLayout="opposites"/>
    <node id="4way_45" x="1000.00" y="-800.00" type="traffic_light" tlLayout="opposites"/>
    <node id="4way_46" x="1200.00" y="-800.00" type="traffic_light" tlLayout="opposites"/>
    <node id="4way_47" x="1400.00" y="-800.00" type="traffic_light" tlLayout="opposites"/>
    <node id="4way_48" x="1600.00" y="-800.00" type="traffic_light" tlLayout="opposites"/>
    <node id="4way_51" x="200.00" y="-1000.00" type="traffic_light" tlLayout="opposites"/>
    <node id="4way_52" x="400.00" y="-1000.00" type="traffic_light" tlLayout="opposites"/>
    <node id="4way_53" x="600.00" y="-1000.00" type="traffic_light" tlLayout="opposites"/>
    <node id="4way_54" x="800.00" y="-1000.00" type="traffic_light" tlLayout="opposites"/>
    <node id="4way_55" x="1000.00" y="-1000.00" type="traffic_light" tlLayout="opposites"/>
    <node id="4way_56" x="1200.00" y="-1000.00" type="traffic_light" tlLayout="opposites"/>
    <node id="4way_57" x="1400.00" y="-1000.00" type="traffic_light" tlLayout="opposites"/>
    <node id="4way_58" x="1600.00" y="-1000.00" type="traffic_light" tlLayout="opposites"/>
    <node id="4way_61" x="200.00" y="-1200.00" type="traffic_light" tlLayout="opposites"/>
    <node id="4way_62" x="400.00" y="-1200.00" type="traffic_light" tlLayout="opposites"/>
    <node id="4way_63" x="600.00" y="-1200.00" type="traffic_light" tlLayout="opposites"/>
    <node id="4way_64" x="800.00" y="-1200.00" type="traffic_light" tlLayout="opposites"/>
    <node id="4way_65" x="1000.00" y="-1200.00" type="traffic_light" tlLayout="opposites"/>
    <node id="4way_66" x="1200.00" y="-1200.00" type="traffic_light" tlLayout="opposites"/>
    <node id="4way_67" x="1400.00" y="-1200.00" type="traffic_light" tlLayout="opposites"/>
    <node id="4way_68" x="1600.00" y="-1200.00" type="traffic_light" tlLayout="opposites"/>
    <node id="4way_71" x="200.00" y="-1400.00" type="traffic_light" tlLayout="opposites"/>
    <node id="4way_72" x="400.00" y="-1400.00" type="traffic_light" tlLayout="opposites"/>
    <node id="4way_73" x="600.00" y="-1400.00" type="traffic_light" tlLayout="opposites"/>
    <node id="4way_74" x="800.00" y="-1400.00" type="traffic_light" tlLayout="opposites"/>
    <node id="4way_75" x="1000.00" y="-1400.00" type="traffic_light" tlLayout="opposites"/>
    <node id="4way_76" x="1200.00" y="-1400.00" type="traffic_light" tlLayout="opposites"/>
    <node id="4way_77" x="1400.00" y="-1400.00" type="traffic_light" tlLayout="opposites"/>
    <node id="4way_78" x="1600.00" y="-1400.00" type="traffic_light" tlLayout="opposites"/>
    <node id="4way_81" x="200.00" y="-1600.00" type="traffic_light" tlLayout="opposites"/>
    <node id="4way_82" x="400.00" y="-1600.00" type="traffic_light" tlLayout="opposites"/>
    <node id="4way_83" x="600.00" y="-1600.00" type="traffic_light" tlLayout="opposites"/>
    <node id="4way_84" x="800.00" y="-1600.00" type="traffic_light" tlLayout="opposites"/>
    <node id="4way_85" x="1000.00" y="-1600.00" type="traffic_light" tlLayout="opposites"/>
    <node id="4way_86" x="1200.00" y="-1600.00" type="traffic_light" tlLayout="opposites"/>
    <node id="4way_87" x="1400.00" y="-1600.00" type="traffic_light" tlLayout="opposites"/>
    <node id="4way_88" x="1600.00" y="-1600.00" type="traffic_light" tlLayout="opposites"/>
</nodes>
