<routes xmlns:xsi="http://www.w3.org/2001/XMLSchema-instance" xsi:noNamespaceSchemaLocation="http://sumo.dlr.de/xsd/routes_file.xsd">
<trip id="0" depart="0.0" fromJunction="4way_67" toJunction="4way_12"/>
<trip id="1" depart="0.3703" fromJunction="4way_65" toJunction="4way_48"/>
<trip id="2" depart="0.7406" fromJunction="4way_13" toJunction="4way_46"/>
<trip id="3" depart="1.1109" fromJunction="4way_60" toJunction="4way_55"/>
<trip id="4" depart="1.4812" fromJunction="4way_19" toJunction="4way_52"/>
<trip id="5" depart="1.8515000000000001" fromJunction="4way_56" toJunction="4way_50"/>
<trip id="6" depart="2.2218" fromJunction="4way_25" toJunction="4way_21"/>
<trip id="7" depart="2.5921000000000003" fromJunction="3way_7" toJunction="3way_6"/>
<trip id="8" depart="2.9624" fromJunction="4way_24" toJunction="3way_2"/>
<trip id="9" depart="3.3327" fromJunction="4way_42" toJunction="4way_41"/>
<trip id="10" depart="3.7030000000000003" fromJunction="4way_59" toJunction="4way_61"/>
<trip id="11" depart="4.073300000000001" fromJunction="4way_50" toJunction="4way_11"/>
<trip id="12" depart="4.4436" fromJunction="4way_13" toJunction="3way_35"/>
<trip id="13" depart="4.8139" fromJunction="4way_34" toJunction="3way_53"/>
<trip id="14" depart="5.184200000000001" fromJunction="4way_37" toJunction="4way_56"/>
<trip id="15" depart="5.5545" fromJunction="4way_41" toJunction="3way_73"/>
<trip id="16" depart="5.9248" fromJunction="4way_21" toJunction="4way_11"/>
<trip id="17" depart="6.295100000000001" fromJunction="4way_57" toJunction="3way_2"/>
<trip id="18" depart="6.6654" fromJunction="4way_40" toJunction="4way_34"/>
<trip id="19" depart="7.0357" fromJunction="4way_55" toJunction="3way_9"/>
<trip id="20" depart="7.406000000000001" fromJunction="3way_5" toJunction="4way_49"/>
<trip id="21" depart="7.7763" fromJunction="3way_35" toJunction="3way_77"/>
<trip id="22" depart="8.146600000000001" fromJunction="4way_10" toJunction="3way_36"/>
<trip id="23" depart="8.5169" fromJunction="4way_55" toJunction="4way_21"/>
<trip id="24" depart="8.8872" fromJunction="3way_17" toJunction="4way_70"/>
<trip id="25" depart="9.2575" fromJunction="3way_62" toJunction="3way_77"/>
<trip id="26" depart="9.6278" fromJunction="3way_74" toJunction="4way_22"/>
<trip id="27" depart="9.9981" fromJunction="3way_75" toJunction="4way_11"/>
<trip id="28" depart="10.368400000000001" fromJunction="3way_26" toJunction="3way_62"/>
<trip id="29" depart="10.7387" fromJunction="3way_44" toJunction="4way_22"/>
<trip id="30" depart="11.109" fromJunction="4way_10" toJunction="3way_78"/>
<trip id="31" depart="11.4793" fromJunction="3way_17" toJunction="4way_15"/>
<trip id="32" depart="11.8496" fromJunction="3way_17" toJunction="4way_24"/>
<trip id="33" depart="12.2199" fromJunction="4way_20" toJunction="4way_61"/>
<trip id="34" depart="12.590200000000001" fromJunction="4way_48" toJunction="4way_61"/>
<trip id="35" depart="12.960500000000001" fromJunction="3way_4" toJunction="4way_14"/>
<trip id="36" depart="13.3308" fromJunction="3way_35" toJunction="3way_63"/>
<trip id="37" depart="13.7011" fromJunction="3way_35" toJunction="3way_54"/>
<trip id="38" depart="14.0714" fromJunction="4way_37" toJunction="3way_36"/>
<trip id="39" depart="14.4417" fromJunction="4way_49" toJunction="3way_5"/>
<trip id="40" depart="14.812000000000001" fromJunction="3way_73" toJunction="4way_21"/>
<trip id="41" depart="15.182300000000001" fromJunction="3way_17" toJunction="4way_56"/>
<trip id="42" depart="15.5526" fromJunction="4way_25" toJunction="4way_30"/>
<trip id="43" depart="15.9229" fromJunction="4way_31" toJunction="3way_36"/>
<trip id="44" depart="16.293200000000002" fromJunction="4way_67" toJunction="3way_44"/>
<trip id="45" depart="16.6635" fromJunction="3way_79" toJunction="3way_54"/>
<trip id="46" depart="17.0338" fromJunction="3way_2" toJunction="4way_39"/>
<trip id="47" depart="17.4041" fromJunction="3way_1" toJunction="4way_15"/>
<trip id="48" depart="17.7744" fromJunction="3way_73" toJunction="4way_40"/>
<trip id="49" depart="18.1447" fromJunction="4way_52" toJunction="4way_14"/>
<trip id="50" depart="18.515" fromJunction="4way_30" toJunction="3way_74"/>
<trip id="51" depart="18.8853" fromJunction="4way_30" toJunction="4way_39"/>
<trip id="52" depart="19.2556" fromJunction="4way_43" toJunction="3way_76"/>
<trip id="53" depart="19.6259" fromJunction="4way_33" toJunction="4way_64"/>
<trip id="54" depart="19.9962" fromJunction="3way_54" toJunction="4way_49"/>
<trip id="55" depart="20.366500000000002" fromJunction="4way_28" toJunction="4way_68"/>
<trip id="56" depart="20.736800000000002" fromJunction="4way_30" toJunction="4way_51"/>
<trip id="57" depart="21.107100000000003" fromJunction="4way_49" toJunction="4way_51"/>
<trip id="58" depart="21.4774" fromJunction="4way_38" toJunction="4way_67"/>
<trip id="59" depart="21.8477" fromJunction="4way_13" toJunction="4way_43"/>
<trip id="60" depart="22.218" fromJunction="4way_48" toJunction="4way_46"/>
<trip id="61" depart="22.5883" fromJunction="3way_45" toJunction="3way_2"/>
<trip id="62" depart="22.9586" fromJunction="3way_54" toJunction="4way_22"/>
<trip id="63" depart="23.3289" fromJunction="4way_55" toJunction="4way_57"/>
<trip id="64" depart="23.6992" fromJunction="3way_54" toJunction="3way_44"/>
<trip id="65" depart="24.0695" fromJunction="4way_39" toJunction="4way_21"/>
<trip id="66" depart="24.4398" fromJunction="4way_22" toJunction="4way_30"/>
<trip id="67" depart="24.810100000000002" fromJunction="4way_55" toJunction="4way_22"/>
<trip id="68" depart="25.180400000000002" fromJunction="4way_10" toJunction="4way_69"/>
<trip id="69" depart="25.550700000000003" fromJunction="4way_60" toJunction="4way_55"/>
<trip id="70" depart="25.921000000000003" fromJunction="4way_58" toJunction="4way_68"/>
<trip id="71" depart="26.2913" fromJunction="4way_16" toJunction="3way_17"/>
<trip id="72" depart="26.6616" fromJunction="4way_70" toJunction="4way_58"/>
<trip id="73" depart="27.0319" fromJunction="4way_42" toJunction="3way_53"/>
<trip id="74" depart="27.4022" fromJunction="4way_57" toJunction="3way_62"/>
<trip id="75" depart="27.7725" fromJunction="4way_33" toJunction="3way_35"/>
<trip id="76" depart="28.1428" fromJunction="4way_21" toJunction="4way_68"/>
<trip id="77" depart="28.5131" fromJunction="3way_6" toJunction="4way_37"/>
<trip id="78" depart="28.8834" fromJunction="4way_64" toJunction="4way_49"/>
<trip id="79" depart="29.253700000000002" fromJunction="4way_42" toJunction="4way_67"/>
<trip id="80" depart="29.624000000000002" fromJunction="4way_33" toJunction="4way_61"/>
<trip id="81" depart="29.994300000000003" fromJunction="3way_9" toJunction="3way_1"/>
<trip id="82" depart="30.364600000000003" fromJunction="3way_71" toJunction="4way_14"/>
<trip id="83" depart="30.734900000000003" fromJunction="3way_5" toJunction="4way_56"/>
<trip id="84" depart="31.1052" fromJunction="3way_2" toJunction="3way_78"/>
<trip id="85" depart="31.4755" fromJunction="3way_76" toJunction="4way_59"/>
<trip id="86" depart="31.8458" fromJunction="4way_25" toJunction="3way_18"/>
<trip id="87" depart="32.216100000000004" fromJunction="3way_3" toJunction="4way_58"/>
<trip id="88" depart="32.586400000000005" fromJunction="4way_57" toJunction="3way_62"/>
<trip id="89" depart="32.956700000000005" fromJunction="3way_75" toJunction="4way_30"/>
<trip id="90" depart="33.327" fromJunction="4way_57" toJunction="4way_25"/>
<trip id="91" depart="33.6973" fromJunction="4way_39" toJunction="4way_65"/>
<trip id="92" depart="34.0676" fromJunction="3way_36" toJunction="4way_14"/>
<trip id="93" depart="34.4379" fromJunction="3way_77" toJunction="4way_28"/>
<trip id="94" depart="34.8082" fromJunction="4way_34" toJunction="3way_79"/>
<trip id="95" depart="35.1785" fromJunction="4way_29" toJunction="4way_14"/>
<trip id="96" depart="35.5488" fromJunction="3way_74" toJunction="3way_76"/>
<trip id="97" depart="35.9191" fromJunction="4way_55" toJunction="3way_5"/>
<trip id="98" depart="36.2894" fromJunction="4way_49" toJunction="3way_36"/>
<trip id="99" depart="36.6597" fromJunction="3way_71" toJunction="4way_19"/>
<trip id="100" depart="37.03" fromJunction="3way_6" toJunction="3way_2"/>
<trip id="101" depart="37.4003" fromJunction="4way_64" toJunction="4way_40"/>
<trip id="102" depart="37.7706" fromJunction="4way_69" toJunction="4way_65"/>
<trip id="103" depart="38.1409" fromJunction="3way_77" toJunction="4way_70"/>
<trip id="104" depart="38.5112" fromJunction="3way_73" toJunction="4way_31"/>
<trip id="105" depart="38.8815" fromJunction="4way_32" toJunction="3way_2"/>
<trip id="106" depart="39.2518" fromJunction="4way_19" toJunction="3way_36"/>
<trip id="107" depart="39.6221" fromJunction="4way_15" toJunction="4way_39"/>
<trip id="108" depart="39.9924" fromJunction="4way_51" toJunction="4way_66"/>
<trip id="109" depart="40.362700000000004" fromJunction="4way_59" toJunction="3way_63"/>
<trip id="110" depart="40.733000000000004" fromJunction="4way_43" toJunction="3way_79"/>
<trip id="111" depart="41.103300000000004" fromJunction="3way_77" toJunction="4way_40"/>
<trip id="112" depart="41.473600000000005" fromJunction="4way_14" toJunction="4way_34"/>
<trip id="113" depart="41.843900000000005" fromJunction="3way_77" toJunction="3way_74"/>
<trip id="114" depart="42.214200000000005" fromJunction="3way_2" toJunction="4way_47"/>
<trip id="115" depart="42.584500000000006" fromJunction="4way_46" toJunction="3way_78"/>
<trip id="116" depart="42.9548" fromJunction="4way_11" toJunction="4way_10"/>
<trip id="117" depart="43.3251" fromJunction="4way_39" toJunction="3way_63"/>
<trip id="118" depart="43.6954" fromJunction="3way_35" toJunction="4way_42"/>
<trip id="119" depart="44.0657" fromJunction="3way_44" toJunction="4way_47"/>
<trip id="120" depart="44.436" fromJunction="4way_28" toJunction="4way_67"/>
<trip id="121" depart="44.8063" fromJunction="3way_79" toJunction="4way_21"/>
<trip id="122" depart="45.1766" fromJunction="4way_29" toJunction="3way_53"/>
<trip id="123" depart="45.5469" fromJunction="4way_34" toJunction="3way_9"/>
<trip id="124" depart="45.9172" fromJunction="4way_23" toJunction="4way_32"/>
<trip id="125" depart="46.2875" fromJunction="3way_7" toJunction="4way_69"/>
<trip id="126" depart="46.6578" fromJunction="4way_39" toJunction="4way_12"/>
<trip id="127" depart="47.0281" fromJunction="3way_54" toJunction="4way_52"/>
<trip id="128" depart="47.3984" fromJunction="3way_17" toJunction="3way_75"/>
<trip id="129" depart="47.7687" fromJunction="4way_25" toJunction="3way_2"/>
<trip id="130" depart="48.139" fromJunction="4way_50" toJunction="4way_31"/>
<trip id="131" depart="48.5093" fromJunction="4way_39" toJunction="3way_63"/>
<trip id="132" depart="48.8796" fromJunction="4way_29" toJunction="3way_5"/>
<trip id="133" depart="49.249900000000004" fromJunction="4way_51" toJunction="4way_61"/>
<trip id="134" depart="49.620200000000004" fromJunction="4way_52" toJunction="3way_18"/>
<trip id="135" depart="49.990500000000004" fromJunction="4way_43" toJunction="3way_76"/>
<trip id="136" depart="50.360800000000005" fromJunction="4way_59" toJunction="4way_34"/>
<trip id="137" depart="50.731100000000005" fromJunction="4way_51" toJunction="4way_66"/>
<trip id="138" depart="51.101400000000005" fromJunction="4way_33" toJunction="3way_54"/>
<trip id="139" depart="51.471700000000006" fromJunction="3way_2" toJunction="4way_57"/>
<trip id="140" depart="51.842000000000006" fromJunction="3way_53" toJunction="3way_18"/>
<trip id="141" depart="52.2123" fromJunction="4way_20" toJunction="4way_61"/>
<trip id="142" depart="52.5826" fromJunction="4way_13" toJunction="4way_38"/>
<trip id="143" depart="52.9529" fromJunction="3way_44" toJunction="4way_10"/>
<trip id="144" depart="53.3232" fromJunction="3way_79" toJunction="4way_15"/>
<trip id="145" depart="53.6935" fromJunction="3way_76" toJunction="4way_47"/>
<trip id="146" depart="54.0638" fromJunction="4way_42" toJunction="3way_17"/>
<trip id="147" depart="54.4341" fromJunction="4way_43" toJunction="4way_52"/>
<trip id="148" depart="54.8044" fromJunction="4way_41" toJunction="4way_69"/>
<trip id="149" depart="55.1747" fromJunction="3way_7" toJunction="3way_27"/>
<trip id="150" depart="55.545" fromJunction="3way_76" toJunction="4way_37"/>
<trip id="151" depart="55.9153" fromJunction="3way_5" toJunction="3way_44"/>
<trip id="152" depart="56.2856" fromJunction="3way_1" toJunction="4way_67"/>
<trip id="153" depart="56.6559" fromJunction="3way_53" toJunction="4way_41"/>
<trip id="154" depart="57.0262" fromJunction="3way_75" toJunction="4way_31"/>
<trip id="155" depart="57.3965" fromJunction="4way_12" toJunction="4way_46"/>
<trip id="156" depart="57.7668" fromJunction="4way_67" toJunction="4way_42"/>
<trip id="157" depart="58.137100000000004" fromJunction="3way_44" toJunction="3way_73"/>
<trip id="158" depart="58.507400000000004" fromJunction="3way_45" toJunction="3way_5"/>
<trip id="159" depart="58.877700000000004" fromJunction="4way_11" toJunction="3way_73"/>
<trip id="160" depart="59.248000000000005" fromJunction="4way_49" toJunction="4way_40"/>
<trip id="161" depart="59.618300000000005" fromJunction="4way_19" toJunction="3way_63"/>
<trip id="162" depart="59.988600000000005" fromJunction="4way_50" toJunction="3way_71"/>
<trip id="163" depart="60.358900000000006" fromJunction="4way_49" toJunction="3way_5"/>
<trip id="164" depart="60.729200000000006" fromJunction="4way_10" toJunction="3way_74"/>
<trip id="165" depart="61.099500000000006" fromJunction="3way_63" toJunction="4way_39"/>
<trip id="166" depart="61.469800000000006" fromJunction="3way_78" toJunction="4way_10"/>
<trip id="167" depart="61.8401" fromJunction="3way_4" toJunction="4way_11"/>
<trip id="168" depart="62.2104" fromJunction="3way_6" toJunction="4way_59"/>
<trip id="169" depart="62.5807" fromJunction="3way_45" toJunction="4way_47"/>
<trip id="170" depart="62.951" fromJunction="4way_43" toJunction="4way_30"/>
<trip id="171" depart="63.3213" fromJunction="3way_3" toJunction="4way_13"/>
<trip id="172" depart="63.6916" fromJunction="4way_47" toJunction="4way_55"/>
<trip id="173" depart="64.06190000000001" fromJunction="4way_40" toJunction="4way_65"/>
<trip id="174" depart="64.43220000000001" fromJunction="3way_35" toJunction="3way_63"/>
<trip id="175" depart="64.80250000000001" fromJunction="4way_43" toJunction="4way_28"/>
<trip id="176" depart="65.17280000000001" fromJunction="4way_69" toJunction="3way_79"/>
<trip id="177" depart="65.54310000000001" fromJunction="4way_11" toJunction="4way_65"/>
<trip id="178" depart="65.91340000000001" fromJunction="4way_11" toJunction="4way_51"/>
<trip id="179" depart="66.28370000000001" fromJunction="4way_28" toJunction="4way_67"/>
<trip id="180" depart="66.654" fromJunction="4way_49" toJunction="4way_69"/>
<trip id="181" depart="67.0243" fromJunction="3way_27" toJunction="4way_49"/>
<trip id="182" depart="67.3946" fromJunction="4way_66" toJunction="4way_32"/>
<trip id="183" depart="67.7649" fromJunction="3way_62" toJunction="3way_75"/>
<trip id="184" depart="68.1352" fromJunction="4way_43" toJunction="4way_59"/>
<trip id="185" depart="68.5055" fromJunction="4way_39" toJunction="4way_11"/>
<trip id="186" depart="68.8758" fromJunction="4way_11" toJunction="4way_42"/>
<trip id="187" depart="69.2461" fromJunction="4way_30" toJunction="4way_43"/>
<trip id="188" depart="69.6164" fromJunction="4way_69" toJunction="4way_15"/>
<trip id="189" depart="69.9867" fromJunction="3way_62" toJunction="4way_68"/>
<trip id="190" depart="70.357" fromJunction="4way_28" toJunction="4way_66"/>
<trip id="191" depart="70.7273" fromJunction="4way_46" toJunction="3way_5"/>
<trip id="192" depart="71.0976" fromJunction="4way_33" toJunction="3way_74"/>
<trip id="193" depart="71.4679" fromJunction="4way_43" toJunction="3way_3"/>
<trip id="194" depart="71.8382" fromJunction="3way_79" toJunction="3way_2"/>
<trip id="195" depart="72.2085" fromJunction="4way_25" toJunction="4way_28"/>
<trip id="196" depart="72.5788" fromJunction="4way_34" toJunction="3way_17"/>
<trip id="197" depart="72.9491" fromJunction="4way_64" toJunction="4way_42"/>
<trip id="198" depart="73.3194" fromJunction="3way_76" toJunction="3way_27"/>
<trip id="199" depart="73.6897" fromJunction="3way_3" toJunction="4way_57"/>
<trip id="200" depart="74.06" fromJunction="4way_55" toJunction="3way_2"/>
<trip id="201" depart="74.4303" fromJunction="3way_74" toJunction="3way_6"/>
<trip id="202" depart="74.8006" fromJunction="3way_74" toJunction="3way_76"/>
<trip id="203" depart="75.1709" fromJunction="3way_1" toJunction="3way_44"/>
<trip id="204" depart="75.5412" fromJunction="4way_57" toJunction="3way_26"/>
<trip id="205" depart="75.9115" fromJunction="4way_70" toJunction="4way_61"/>
<trip id="206" depart="76.2818" fromJunction="3way_62" toJunction="4way_37"/>
<trip id="207" depart="76.6521" fromJunction="4way_29" toJunction="4way_13"/>
<trip id="208" depart="77.0224" fromJunction="3way_6" toJunction="4way_70"/>
<trip id="209" depart="77.3927" fromJunction="3way_54" toJunction="4way_50"/>
<trip id="210" depart="77.763" fromJunction="4way_31" toJunction="3way_75"/>
<trip id="211" depart="78.1333" fromJunction="4way_31" toJunction="3way_75"/>
<trip id="212" depart="78.5036" fromJunction="4way_46" toJunction="4way_47"/>
<trip id="213" depart="78.8739" fromJunction="3way_54" toJunction="4way_12"/>
<trip id="214" depart="79.2442" fromJunction="4way_37" toJunction="4way_58"/>
<trip id="215" depart="79.6145" fromJunction="4way_15" toJunction="3way_9"/>
<trip id="216" depart="79.9848" fromJunction="3way_4" toJunction="4way_25"/>
<trip id="217" depart="80.35510000000001" fromJunction="3way_18" toJunction="3way_76"/>
<trip id="218" depart="80.72540000000001" fromJunction="4way_61" toJunction="4way_68"/>
<trip id="219" depart="81.09570000000001" fromJunction="4way_69" toJunction="4way_52"/>
<trip id="220" depart="81.46600000000001" fromJunction="4way_70" toJunction="3way_54"/>
<trip id="221" depart="81.83630000000001" fromJunction="3way_26" toJunction="3way_74"/>
<trip id="222" depart="82.20660000000001" fromJunction="3way_76" toJunction="4way_43"/>
<trip id="223" depart="82.57690000000001" fromJunction="3way_5" toJunction="4way_49"/>
<trip id="224" depart="82.94720000000001" fromJunction="4way_51" toJunction="4way_14"/>
<trip id="225" depart="83.31750000000001" fromJunction="4way_19" toJunction="3way_73"/>
<trip id="226" depart="83.68780000000001" fromJunction="4way_23" toJunction="4way_10"/>
<trip id="227" depart="84.05810000000001" fromJunction="3way_71" toJunction="3way_75"/>
<trip id="228" depart="84.42840000000001" fromJunction="3way_45" toJunction="4way_64"/>
<trip id="229" depart="84.79870000000001" fromJunction="3way_75" toJunction="4way_24"/>
<trip id="230" depart="85.16900000000001" fromJunction="4way_34" toJunction="4way_38"/>
<trip id="231" depart="85.5393" fromJunction="4way_42" toJunction="4way_66"/>
<trip id="232" depart="85.9096" fromJunction="4way_23" toJunction="4way_34"/>
<trip id="233" depart="86.2799" fromJunction="4way_52" toJunction="4way_49"/>
<trip id="234" depart="86.6502" fromJunction="4way_64" toJunction="4way_70"/>
<trip id="235" depart="87.0205" fromJunction="3way_54" toJunction="3way_6"/>
<trip id="236" depart="87.3908" fromJunction="4way_46" toJunction="3way_53"/>
<trip id="237" depart="87.7611" fromJunction="4way_48" toJunction="3way_44"/>
<trip id="238" depart="88.1314" fromJunction="4way_60" toJunction="4way_19"/>
<trip id="239" depart="88.5017" fromJunction="4way_12" toJunction="4way_52"/>
<trip id="240" depart="88.872" fromJunction="4way_39" toJunction="3way_63"/>
<trip id="241" depart="89.2423" fromJunction="4way_37" toJunction="4way_69"/>
<trip id="242" depart="89.6126" fromJunction="3way_73" toJunction="4way_12"/>
<trip id="243" depart="89.9829" fromJunction="4way_28" toJunction="4way_11"/>
<trip id="244" depart="90.3532" fromJunction="4way_38" toJunction="3way_74"/>
<trip id="245" depart="90.7235" fromJunction="4way_10" toJunction="3way_45"/>
<trip id="246" depart="91.0938" fromJunction="4way_23" toJunction="4way_56"/>
<trip id="247" depart="91.4641" fromJunction="4way_25" toJunction="3way_27"/>
<trip id="248" depart="91.8344" fromJunction="3way_4" toJunction="4way_42"/>
<trip id="249" depart="92.2047" fromJunction="4way_64" toJunction="3way_74"/>
<trip id="250" depart="92.575" fromJunction="3way_18" toJunction="3way_26"/>
<trip id="251" depart="92.9453" fromJunction="4way_40" toJunction="4way_14"/>
<trip id="252" depart="93.3156" fromJunction="4way_58" toJunction="4way_57"/>
<trip id="253" depart="93.6859" fromJunction="3way_18" toJunction="3way_78"/>
<trip id="254" depart="94.0562" fromJunction="4way_51" toJunction="4way_40"/>
<trip id="255" depart="94.4265" fromJunction="3way_63" toJunction="4way_65"/>
<trip id="256" depart="94.7968" fromJunction="4way_58" toJunction="3way_3"/>
<trip id="257" depart="95.1671" fromJunction="4way_10" toJunction="3way_1"/>
<trip id="258" depart="95.5374" fromJunction="4way_25" toJunction="4way_56"/>
<trip id="259" depart="95.9077" fromJunction="4way_37" toJunction="3way_7"/>
<trip id="260" depart="96.278" fromJunction="3way_18" toJunction="3way_2"/>
<trip id="261" depart="96.6483" fromJunction="3way_63" toJunction="4way_57"/>
<trip id="262" depart="97.0186" fromJunction="3way_26" toJunction="3way_77"/>
<trip id="263" depart="97.3889" fromJunction="4way_49" toJunction="4way_30"/>
<trip id="264" depart="97.7592" fromJunction="4way_43" toJunction="4way_31"/>
<trip id="265" depart="98.12950000000001" fromJunction="4way_13" toJunction="3way_1"/>
<trip id="266" depart="98.49980000000001" fromJunction="4way_39" toJunction="4way_48"/>
<trip id="267" depart="98.87010000000001" fromJunction="3way_2" toJunction="4way_52"/>
<trip id="268" depart="99.24040000000001" fromJunction="4way_68" toJunction="4way_49"/>
<trip id="269" depart="99.61070000000001" fromJunction="3way_27" toJunction="4way_47"/>
<trip id="270" depart="99.98100000000001" fromJunction="3way_17" toJunction="4way_50"/>
<trip id="271" depart="100.35130000000001" fromJunction="4way_56" toJunction="4way_64"/>
<trip id="272" depart="100.72160000000001" fromJunction="3way_7" toJunction="4way_49"/>
<trip id="273" depart="101.09190000000001" fromJunction="4way_37" toJunction="3way_76"/>
<trip id="274" depart="101.46220000000001" fromJunction="4way_60" toJunction="4way_57"/>
<trip id="275" depart="101.83250000000001" fromJunction="3way_44" toJunction="4way_57"/>
<trip id="276" depart="102.20280000000001" fromJunction="4way_51" toJunction="4way_61"/>
<trip id="277" depart="102.57310000000001" fromJunction="4way_25" toJunction="4way_38"/>
<trip id="278" depart="102.94340000000001" fromJunction="4way_25" toJunction="4way_65"/>
<trip id="279" depart="103.31370000000001" fromJunction="4way_52" toJunction="4way_15"/>
<trip id="280" depart="103.68400000000001" fromJunction="3way_3" toJunction="4way_16"/>
<trip id="281" depart="104.05430000000001" fromJunction="4way_19" toJunction="3way_71"/>
<trip id="282" depart="104.4246" fromJunction="3way_45" toJunction="4way_43"/>
<trip id="283" depart="104.7949" fromJunction="4way_60" toJunction="3way_62"/>
<trip id="284" depart="105.1652" fromJunction="4way_69" toJunction="4way_64"/>
<trip id="285" depart="105.5355" fromJunction="4way_22" toJunction="3way_62"/>
<trip id="286" depart="105.9058" fromJunction="3way_6" toJunction="4way_55"/>
<trip id="287" depart="106.2761" fromJunction="3way_74" toJunction="4way_49"/>
<trip id="288" depart="106.6464" fromJunction="3way_5" toJunction="3way_4"/>
<trip id="289" depart="107.0167" fromJunction="4way_69" toJunction="3way_5"/>
<trip id="290" depart="107.387" fromJunction="4way_69" toJunction="4way_14"/>
<trip id="291" depart="107.7573" fromJunction="4way_56" toJunction="4way_31"/>
<trip id="292" depart="108.1276" fromJunction="4way_70" toJunction="3way_45"/>
<trip id="293" depart="108.4979" fromJunction="4way_20" toJunction="3way_9"/>
<trip id="294" depart="108.8682" fromJunction="4way_61" toJunction="4way_19"/>
<trip id="295" depart="109.2385" fromJunction="3way_27" toJunction="3way_71"/>
<trip id="296" depart="109.6088" fromJunction="3way_5" toJunction="4way_40"/>
<trip id="297" depart="109.9791" fromJunction="4way_20" toJunction="4way_48"/>
<trip id="298" depart="110.3494" fromJunction="3way_75" toJunction="3way_63"/>
<trip id="299" depart="110.7197" fromJunction="4way_10" toJunction="4way_47"/>
<trip id="300" depart="111.09" fromJunction="3way_27" toJunction="4way_11"/>
<trip id="301" depart="111.4603" fromJunction="3way_44" toJunction="4way_52"/>
<trip id="302" depart="111.8306" fromJunction="3way_18" toJunction="3way_17"/>
<trip id="303" depart="112.2009" fromJunction="4way_22" toJunction="4way_39"/>
<trip id="304" depart="112.5712" fromJunction="4way_70" toJunction="4way_28"/>
<trip id="305" depart="112.9415" fromJunction="4way_67" toJunction="3way_9"/>
<trip id="306" depart="113.3118" fromJunction="4way_68" toJunction="4way_13"/>
<trip id="307" depart="113.6821" fromJunction="4way_60" toJunction="4way_61"/>
<trip id="308" depart="114.0524" fromJunction="4way_49" toJunction="4way_32"/>
<trip id="309" depart="114.4227" fromJunction="3way_53" toJunction="3way_27"/>
<trip id="310" depart="114.793" fromJunction="3way_75" toJunction="3way_5"/>
<trip id="311" depart="115.1633" fromJunction="4way_56" toJunction="4way_55"/>
<trip id="312" depart="115.5336" fromJunction="4way_43" toJunction="4way_41"/>
<trip id="313" depart="115.90390000000001" fromJunction="3way_26" toJunction="3way_35"/>
<trip id="314" depart="116.27420000000001" fromJunction="4way_23" toJunction="4way_39"/>
<trip id="315" depart="116.64450000000001" fromJunction="4way_34" toJunction="4way_33"/>
<trip id="316" depart="117.01480000000001" fromJunction="4way_28" toJunction="4way_61"/>
<trip id="317" depart="117.38510000000001" fromJunction="3way_53" toJunction="4way_19"/>
<trip id="318" depart="117.75540000000001" fromJunction="4way_22" toJunction="4way_40"/>
<trip id="319" depart="118.12570000000001" fromJunction="3way_17" toJunction="4way_42"/>
<trip id="320" depart="118.49600000000001" fromJunction="4way_30" toJunction="4way_38"/>
<trip id="321" depart="118.86630000000001" fromJunction="3way_71" toJunction="3way_75"/>
<trip id="322" depart="119.23660000000001" fromJunction="3way_5" toJunction="4way_42"/>
<trip id="323" depart="119.60690000000001" fromJunction="3way_26" toJunction="4way_20"/>
<trip id="324" depart="119.97720000000001" fromJunction="4way_61" toJunction="4way_11"/>
<trip id="325" depart="120.34750000000001" fromJunction="4way_33" toJunction="4way_46"/>
<trip id="326" depart="120.71780000000001" fromJunction="3way_73" toJunction="3way_35"/>
<trip id="327" depart="121.08810000000001" fromJunction="4way_28" toJunction="4way_37"/>
<trip id="328" depart="121.45840000000001" fromJunction="3way_18" toJunction="4way_31"/>
<trip id="329" depart="121.82870000000001" fromJunction="4way_13" toJunction="4way_58"/>
<trip id="330" depart="122.19900000000001" fromJunction="4way_55" toJunction="4way_28"/>
<trip id="331" depart="122.56930000000001" fromJunction="3way_6" toJunction="4way_57"/>
<trip id="332" depart="122.93960000000001" fromJunction="4way_22" toJunction="4way_15"/>
<trip id="333" depart="123.3099" fromJunction="4way_65" toJunction="4way_67"/>
<trip id="334" depart="123.6802" fromJunction="4way_37" toJunction="3way_26"/>
<trip id="335" depart="124.0505" fromJunction="3way_36" toJunction="4way_37"/>
<trip id="336" depart="124.4208" fromJunction="4way_14" toJunction="3way_3"/>
<trip id="337" depart="124.7911" fromJunction="4way_48" toJunction="3way_26"/>
<trip id="338" depart="125.1614" fromJunction="4way_66" toJunction="4way_58"/>
<trip id="339" depart="125.5317" fromJunction="3way_17" toJunction="4way_43"/>
<trip id="340" depart="125.902" fromJunction="3way_3" toJunction="4way_42"/>
<trip id="341" depart="126.2723" fromJunction="4way_37" toJunction="4way_65"/>
<trip id="342" depart="126.6426" fromJunction="4way_10" toJunction="4way_56"/>
<trip id="343" depart="127.0129" fromJunction="3way_2" toJunction="3way_79"/>
<trip id="344" depart="127.3832" fromJunction="4way_24" toJunction="4way_47"/>
<trip id="345" depart="127.7535" fromJunction="3way_76" toJunction="4way_10"/>
<trip id="346" depart="128.12380000000002" fromJunction="3way_17" toJunction="3way_76"/>
<trip id="347" depart="128.4941" fromJunction="3way_6" toJunction="3way_73"/>
<trip id="348" depart="128.86440000000002" fromJunction="4way_33" toJunction="3way_6"/>
<trip id="349" depart="129.2347" fromJunction="4way_21" toJunction="3way_62"/>
<trip id="350" depart="129.60500000000002" fromJunction="4way_11" toJunction="4way_41"/>
<trip id="351" depart="129.9753" fromJunction="3way_78" toJunction="3way_53"/>
<trip id="352" depart="130.34560000000002" fromJunction="4way_56" toJunction="4way_55"/>
<trip id="353" depart="130.7159" fromJunction="4way_50" toJunction="3way_18"/>
<trip id="354" depart="131.08620000000002" fromJunction="4way_25" toJunction="4way_23"/>
<trip id="355" depart="131.4565" fromJunction="4way_60" toJunction="3way_3"/>
<trip id="356" depart="131.82680000000002" fromJunction="4way_51" toJunction="4way_28"/>
<trip id="357" depart="132.1971" fromJunction="4way_70" toJunction="4way_49"/>
<trip id="358" depart="132.56740000000002" fromJunction="4way_10" toJunction="4way_32"/>
<trip id="359" depart="132.9377" fromJunction="4way_10" toJunction="4way_38"/>
<trip id="360" depart="133.308" fromJunction="3way_73" toJunction="4way_10"/>
<trip id="361" depart="133.6783" fromJunction="4way_40" toJunction="4way_38"/>
<trip id="362" depart="134.0486" fromJunction="4way_56" toJunction="3way_63"/>
<trip id="363" depart="134.4189" fromJunction="3way_62" toJunction="3way_35"/>
<trip id="364" depart="134.7892" fromJunction="4way_52" toJunction="3way_4"/>
<trip id="365" depart="135.1595" fromJunction="3way_71" toJunction="3way_1"/>
<trip id="366" depart="135.5298" fromJunction="3way_7" toJunction="4way_57"/>
<trip id="367" depart="135.9001" fromJunction="4way_67" toJunction="4way_51"/>