<?xml version="1.0" encoding="UTF-8"?>
<nodes xmlns:xsi="http://www.w3.org/2001/XMLSchema-instance" xsi:noNamespaceSchemaLocation="http://sumo.dlr.de/xsd/nodes_file.xsd">
    <node id="3way_1" x="100.00" y="0.00" type="traffic_light" tlLayout="opposites"/>
    <node id="3way_17" x="800.00" y="-100.00" type="traffic_light" tlLayout="opposites"/>
    <node id="3way_18" x="0.00" y="-200.00" type="traffic_light" tlLayout="opposites"/>
    <node id="3way_2" x="200.00" y="0.00" type="traffic_light" tlLayout="opposites"/>
    <node id="3way_26" x="800.00" y="-200.00" type="traffic_light" tlLayout="opposites"/>
    <node id="3way_27" x="0.00" y="-300.00" type="traffic_light" tlLayout="opposites"/>
    <node id="3way_3" x="300.00" y="0.00" type="traffic_light" tlLayout="opposites"/>
    <node id="3way_35" x="800.00" y="-300.00" type="traffic_light" tlLayout="opposites"/>
    <node id="3way_36" x="0.00" y="-400.00" type="traffic_light" tlLayout="opposites"/>
    <node id="3way_4" x="400.00" y="0.00" type="traffic_light" tlLayout="opposites"/>
    <node id="3way_44" x="800.00" y="-400.00" type="traffic_light" tlLayout="opposites"/>
    <node id="3way_45" x="0.00" y="-500.00" type="traffic_light" tlLayout="opposites"/>
    <node id="3way_5" x="500.00" y="0.00" type="traffic_light" tlLayout="opposites"/>
    <node id="3way_53" x="800.00" y="-500.00" type="traffic_light" tlLayout="opposites"/>
    <node id="3way_54" x="0.00" y="-600.00" type="traffic_light" tlLayout="opposites"/>
    <node id="3way_6" x="600.00" y="0.00" type="traffic_light" tlLayout="opposites"/>
    <node id="3way_62" x="800.00" y="-600.00" type="traffic_light" tlLayout="opposites"/>
    <node id="3way_63" x="0.00" y="-700.00" type="traffic_light" tlLayout="opposites"/>
    <node id="3way_7" x="700.00" y="0.00" type="traffic_light" tlLayout="opposites"/>
    <node id="3way_71" x="800.00" y="-700.00" type="traffic_light" tlLayout="opposites"/>
    <node id="3way_73" x="100.00" y="-800.00" type="traffic_light" tlLayout="opposites"/>
    <node id="3way_74" x="200.00" y="-800.00" type="traffic_light" tlLayout="opposites"/>
    <node id="3way_75" x="300.00" y="-800.00" type="traffic_light" tlLayout="opposites"/>
    <node id="3way_76" x="400.00" y="-800.00" type="traffic_light" tlLayout="opposites"/>
    <node id="3way_77" x="500.00" y="-800.00" type="traffic_light" tlLayout="opposites"/>
    <node id="3way_78" x="600.00" y="-800.00" type="traffic_light" tlLayout="opposites"/>
    <node id="3way_79" x="700.00" y="-800.00" type="traffic_light" tlLayout="opposites"/>
    <node id="3way_9" x="0.00" y="-100.00" type="traffic_light" tlLayout="opposites"/>
    <node id="4way_10" x="100.00" y="-100.00" type="traffic_light" tlLayout="opposites"/>
    <node id="4way_11" x="200.00" y="-100.00" type="traffic_light" tlLayout="opposites"/>
    <node id="4way_12" x="300.00" y="-100.00" type="traffic_light" tlLayout="opposites"/>
    <node id="4way_13" x="400.00" y="-100.00" type="traffic_light" tlLayout="opposites"/>
    <node id="4way_14" x="500.00" y="-100.00" type="traffic_light" tlLayout="opposites"/>
    <node id="4way_15" x="600.00" y="-100.00" type="traffic_light" tlLayout="opposites"/>
    <node id="4way_16" x="700.00" y="-100.00" type="traffic_light" tlLayout="opposites"/>
    <node id="4way_19" x="100.00" y="-200.00" type="traffic_light" tlLayout="opposites"/>
    <node id="4way_20" x="200.00" y="-200.00" type="traffic_light" tlLayout="opposites"/>
    <node id="4way_21" x="300.00" y="-200.00" type="traffic_light" tlLayout="opposites"/>
    <node id="4way_22" x="400.00" y="-200.00" type="traffic_light" tlLayout="opposites"/>
    <node id="4way_23" x="500.00" y="-200.00" type="traffic_light" tlLayout="opposites"/>
    <node id="4way_24" x="600.00" y="-200.00" type="traffic_light" tlLayout="opposites"/>
    <node id="4way_25" x="700.00" y="-200.00" type="traffic_light" tlLayout="opposites"/>
    <node id="4way_28" x="100.00" y="-300.00" type="traffic_light" tlLayout="opposites"/>
    <node id="4way_29" x="200.00" y="-300.00" type="traffic_light" tlLayout="opposites"/>
    <node id="4way_30" x="300.00" y="-300.00" type="traffic_light" tlLayout="opposites"/>
    <node id="4way_31" x="400.00" y="-300.00" type="traffic_light" tlLayout="opposites"/>
    <node id="4way_32" x="500.00" y="-300.00" type="traffic_light" tlLayout="opposites"/>
    <node id="4way_33" x="600.00" y="-300.00" type="traffic_light" tlLayout="opposites"/>
    <node id="4way_34" x="700.00" y="-300.00" type="traffic_light" tlLayout="opposites"/>
    <node id="4way_37" x="100.00" y="-400.00" type="traffic_light" tlLayout="opposites"/>
    <node id="4way_38" x="200.00" y="-400.00" type="traffic_light" tlLayout="opposites"/>
    <node id="4way_39" x="300.00" y="-400.00" type="traffic_light" tlLayout="opposites"/>
    <node id="4way_40" x="400.00" y="-400.00" type="traffic_light" tlLayout="opposites"/>
    <node id="4way_41" x="500.00" y="-400.00" type="traffic_light" tlLayout="opposites"/>
    <node id="4way_42" x="600.00" y="-400.00" type="traffic_light" tlLayout="opposites"/>
    <node id="4way_43" x="700.00" y="-400.00" type="traffic_light" tlLayout="opposites"/>
    <node id="4way_46" x="100.00" y="-500.00" type="traffic_light" tlLayout="opposites"/>
    <node id="4way_47" x="200.00" y="-500.00" type="traffic_light" tlLayout="opposites"/>
    <node id="4way_48" x="300.00" y="-500.00" type="traffic_light" tlLayout="opposites"/>
    <node id="4way_49" x="400.00" y="-500.00" type="traffic_light" tlLayout="opposites"/>
    <node id="4way_50" x="500.00" y="-500.00" type="traffic_light" tlLayout="opposites"/>
    <node id="4way_51" x="600.00" y="-500.00" type="traffic_light" tlLayout="opposites"/>
    <node id="4way_52" x="700.00" y="-500.00" type="traffic_light" tlLayout="opposites"/>
    <node id="4way_55" x="100.00" y="-600.00" type="traffic_light" tlLayout="opposites"/>
    <node id="4way_56" x="200.00" y="-600.00" type="traffic_light" tlLayout="opposites"/>
    <node id="4way_57" x="300.00" y="-600.00" type="traffic_light" tlLayout="opposites"/>
    <node id="4way_58" x="400.00" y="-600.00" type="traffic_light" tlLayout="opposites"/>
    <node id="4way_59" x="500.00" y="-600.00" type="traffic_light" tlLayout="opposites"/>
    <node id="4way_60" x="600.00" y="-600.00" type="traffic_light" tlLayout="opposites"/>
    <node id="4way_61" x="700.00" y="-600.00" type="traffic_light" tlLayout="opposites"/>
    <node id="4way_64" x="100.00" y="-700.00" type="traffic_light" tlLayout="opposites"/>
    <node id="4way_65" x="200.00" y="-700.00" type="traffic_light" tlLayout="opposites"/>
    <node id="4way_66" x="300.00" y="-700.00" type="traffic_light" tlLayout="opposites"/>
    <node id="4way_67" x="400.00" y="-700.00" type="traffic_light" tlLayout="opposites"/>
    <node id="4way_68" x="500.00" y="-700.00" type="traffic_light" tlLayout="opposites"/>
    <node id="4way_69" x="600.00" y="-700.00" type="traffic_light" tlLayout="opposites"/>
    <node id="4way_70" x="700.00" y="-700.00" type="traffic_light" tlLayout="opposites"/>
</nodes>
