<routes xmlns:xsi="http://www.w3.org/2001/XMLSchema-instance" xsi:noNamespaceSchemaLocation="http://sumo.dlr.de/xsd/routes_file.xsd">
<trip id="0" depart="0.0" fromJunction="4way_67" toJunction="4way_12"/>
<trip id="1" depart="0.2339" fromJunction="4way_65" toJunction="4way_48"/>
<trip id="2" depart="0.4678" fromJunction="4way_13" toJunction="4way_46"/>
<trip id="3" depart="0.7017" fromJunction="4way_60" toJunction="4way_55"/>
<trip id="4" depart="0.9356" fromJunction="4way_19" toJunction="4way_52"/>
<trip id="5" depart="1.1695" fromJunction="4way_56" toJunction="4way_50"/>
<trip id="6" depart="1.4034" fromJunction="4way_25" toJunction="4way_21"/>
<trip id="7" depart="1.6373" fromJunction="3way_7" toJunction="3way_6"/>
<trip id="8" depart="1.8712" fromJunction="4way_24" toJunction="3way_2"/>
<trip id="9" depart="2.1051" fromJunction="4way_42" toJunction="4way_41"/>
<trip id="10" depart="2.339" fromJunction="4way_59" toJunction="4way_61"/>
<trip id="11" depart="2.5728999999999997" fromJunction="4way_50" toJunction="4way_11"/>
<trip id="12" depart="2.8068" fromJunction="4way_13" toJunction="3way_35"/>
<trip id="13" depart="3.0407" fromJunction="4way_34" toJunction="3way_53"/>
<trip id="14" depart="3.2746" fromJunction="4way_37" toJunction="4way_56"/>
<trip id="15" depart="3.5084999999999997" fromJunction="4way_41" toJunction="3way_73"/>
<trip id="16" depart="3.7424" fromJunction="4way_21" toJunction="4way_11"/>
<trip id="17" depart="3.9763" fromJunction="4way_57" toJunction="3way_2"/>
<trip id="18" depart="4.2102" fromJunction="4way_40" toJunction="4way_34"/>
<trip id="19" depart="4.4441" fromJunction="4way_55" toJunction="3way_9"/>
<trip id="20" depart="4.678" fromJunction="3way_5" toJunction="4way_49"/>
<trip id="21" depart="4.9119" fromJunction="3way_35" toJunction="3way_77"/>
<trip id="22" depart="5.1457999999999995" fromJunction="4way_10" toJunction="3way_36"/>
<trip id="23" depart="5.3797" fromJunction="4way_55" toJunction="4way_21"/>
<trip id="24" depart="5.6136" fromJunction="3way_17" toJunction="4way_70"/>
<trip id="25" depart="5.8475" fromJunction="3way_62" toJunction="3way_77"/>
<trip id="26" depart="6.0814" fromJunction="3way_74" toJunction="4way_22"/>
<trip id="27" depart="6.3153" fromJunction="3way_75" toJunction="4way_11"/>
<trip id="28" depart="6.5492" fromJunction="3way_26" toJunction="3way_62"/>
<trip id="29" depart="6.7831" fromJunction="3way_44" toJunction="4way_22"/>
<trip id="30" depart="7.0169999999999995" fromJunction="4way_10" toJunction="3way_78"/>
<trip id="31" depart="7.2509" fromJunction="3way_17" toJunction="4way_15"/>
<trip id="32" depart="7.4848" fromJunction="3way_17" toJunction="4way_24"/>
<trip id="33" depart="7.7187" fromJunction="4way_20" toJunction="4way_61"/>
<trip id="34" depart="7.9526" fromJunction="4way_48" toJunction="4way_61"/>
<trip id="35" depart="8.1865" fromJunction="3way_4" toJunction="4way_14"/>
<trip id="36" depart="8.4204" fromJunction="3way_35" toJunction="3way_63"/>
<trip id="37" depart="8.6543" fromJunction="3way_35" toJunction="3way_54"/>
<trip id="38" depart="8.8882" fromJunction="4way_37" toJunction="3way_36"/>
<trip id="39" depart="9.1221" fromJunction="4way_49" toJunction="3way_5"/>
<trip id="40" depart="9.356" fromJunction="3way_73" toJunction="4way_21"/>
<trip id="41" depart="9.5899" fromJunction="3way_17" toJunction="4way_56"/>
<trip id="42" depart="9.8238" fromJunction="4way_25" toJunction="4way_30"/>
<trip id="43" depart="10.0577" fromJunction="4way_31" toJunction="3way_36"/>
<trip id="44" depart="10.291599999999999" fromJunction="4way_67" toJunction="3way_44"/>
<trip id="45" depart="10.5255" fromJunction="3way_79" toJunction="3way_54"/>
<trip id="46" depart="10.7594" fromJunction="3way_2" toJunction="4way_39"/>
<trip id="47" depart="10.9933" fromJunction="3way_1" toJunction="4way_15"/>
<trip id="48" depart="11.2272" fromJunction="3way_73" toJunction="4way_40"/>
<trip id="49" depart="11.4611" fromJunction="4way_52" toJunction="4way_14"/>
<trip id="50" depart="11.695" fromJunction="4way_30" toJunction="3way_74"/>
<trip id="51" depart="11.9289" fromJunction="4way_30" toJunction="4way_39"/>
<trip id="52" depart="12.1628" fromJunction="4way_43" toJunction="3way_76"/>
<trip id="53" depart="12.3967" fromJunction="4way_33" toJunction="4way_64"/>
<trip id="54" depart="12.6306" fromJunction="3way_54" toJunction="4way_49"/>
<trip id="55" depart="12.8645" fromJunction="4way_28" toJunction="4way_68"/>
<trip id="56" depart="13.0984" fromJunction="4way_30" toJunction="4way_51"/>
<trip id="57" depart="13.3323" fromJunction="4way_49" toJunction="4way_51"/>
<trip id="58" depart="13.5662" fromJunction="4way_38" toJunction="4way_67"/>
<trip id="59" depart="13.8001" fromJunction="4way_13" toJunction="4way_43"/>
<trip id="60" depart="14.033999999999999" fromJunction="4way_48" toJunction="4way_46"/>
<trip id="61" depart="14.2679" fromJunction="3way_45" toJunction="3way_2"/>
<trip id="62" depart="14.5018" fromJunction="3way_54" toJunction="4way_22"/>
<trip id="63" depart="14.7357" fromJunction="4way_55" toJunction="4way_57"/>
<trip id="64" depart="14.9696" fromJunction="3way_54" toJunction="3way_44"/>
<trip id="65" depart="15.2035" fromJunction="4way_39" toJunction="4way_21"/>
<trip id="66" depart="15.4374" fromJunction="4way_22" toJunction="4way_30"/>
<trip id="67" depart="15.6713" fromJunction="4way_55" toJunction="4way_22"/>
<trip id="68" depart="15.9052" fromJunction="4way_10" toJunction="4way_69"/>
<trip id="69" depart="16.1391" fromJunction="4way_60" toJunction="4way_55"/>
<trip id="70" depart="16.373" fromJunction="4way_58" toJunction="4way_68"/>
<trip id="71" depart="16.6069" fromJunction="4way_16" toJunction="3way_17"/>
<trip id="72" depart="16.8408" fromJunction="4way_70" toJunction="4way_58"/>
<trip id="73" depart="17.0747" fromJunction="4way_42" toJunction="3way_53"/>
<trip id="74" depart="17.3086" fromJunction="4way_57" toJunction="3way_62"/>
<trip id="75" depart="17.5425" fromJunction="4way_33" toJunction="3way_35"/>
<trip id="76" depart="17.7764" fromJunction="4way_21" toJunction="4way_68"/>
<trip id="77" depart="18.0103" fromJunction="3way_6" toJunction="4way_37"/>
<trip id="78" depart="18.2442" fromJunction="4way_64" toJunction="4way_49"/>
<trip id="79" depart="18.4781" fromJunction="4way_42" toJunction="4way_67"/>
<trip id="80" depart="18.712" fromJunction="4way_33" toJunction="4way_61"/>
<trip id="81" depart="18.945899999999998" fromJunction="3way_9" toJunction="3way_1"/>
<trip id="82" depart="19.1798" fromJunction="3way_71" toJunction="4way_14"/>
<trip id="83" depart="19.4137" fromJunction="3way_5" toJunction="4way_56"/>
<trip id="84" depart="19.6476" fromJunction="3way_2" toJunction="3way_78"/>
<trip id="85" depart="19.8815" fromJunction="3way_76" toJunction="4way_59"/>
<trip id="86" depart="20.1154" fromJunction="4way_25" toJunction="3way_18"/>
<trip id="87" depart="20.3493" fromJunction="3way_3" toJunction="4way_58"/>
<trip id="88" depart="20.583199999999998" fromJunction="4way_57" toJunction="3way_62"/>
<trip id="89" depart="20.8171" fromJunction="3way_75" toJunction="4way_30"/>
<trip id="90" depart="21.051" fromJunction="4way_57" toJunction="4way_25"/>
<trip id="91" depart="21.2849" fromJunction="4way_39" toJunction="4way_65"/>
<trip id="92" depart="21.5188" fromJunction="3way_36" toJunction="4way_14"/>
<trip id="93" depart="21.7527" fromJunction="3way_77" toJunction="4way_28"/>
<trip id="94" depart="21.9866" fromJunction="4way_34" toJunction="3way_79"/>
<trip id="95" depart="22.2205" fromJunction="4way_29" toJunction="4way_14"/>
<trip id="96" depart="22.4544" fromJunction="3way_74" toJunction="3way_76"/>
<trip id="97" depart="22.688299999999998" fromJunction="4way_55" toJunction="3way_5"/>
<trip id="98" depart="22.9222" fromJunction="4way_49" toJunction="3way_36"/>
<trip id="99" depart="23.1561" fromJunction="3way_71" toJunction="4way_19"/>
<trip id="100" depart="23.39" fromJunction="3way_6" toJunction="3way_2"/>
<trip id="101" depart="23.6239" fromJunction="4way_64" toJunction="4way_40"/>
<trip id="102" depart="23.8578" fromJunction="4way_69" toJunction="4way_65"/>
<trip id="103" depart="24.0917" fromJunction="3way_77" toJunction="4way_70"/>
<trip id="104" depart="24.3256" fromJunction="3way_73" toJunction="4way_31"/>
<trip id="105" depart="24.5595" fromJunction="4way_32" toJunction="3way_2"/>
<trip id="106" depart="24.7934" fromJunction="4way_19" toJunction="3way_36"/>
<trip id="107" depart="25.0273" fromJunction="4way_15" toJunction="4way_39"/>
<trip id="108" depart="25.2612" fromJunction="4way_51" toJunction="4way_66"/>
<trip id="109" depart="25.4951" fromJunction="4way_59" toJunction="3way_63"/>
<trip id="110" depart="25.729" fromJunction="4way_43" toJunction="3way_79"/>
<trip id="111" depart="25.9629" fromJunction="3way_77" toJunction="4way_40"/>
<trip id="112" depart="26.1968" fromJunction="4way_14" toJunction="4way_34"/>
<trip id="113" depart="26.430699999999998" fromJunction="3way_77" toJunction="3way_74"/>
<trip id="114" depart="26.6646" fromJunction="3way_2" toJunction="4way_47"/>
<trip id="115" depart="26.8985" fromJunction="4way_46" toJunction="3way_78"/>
<trip id="116" depart="27.1324" fromJunction="4way_11" toJunction="4way_10"/>
<trip id="117" depart="27.3663" fromJunction="4way_39" toJunction="3way_63"/>
<trip id="118" depart="27.6002" fromJunction="3way_35" toJunction="4way_42"/>
<trip id="119" depart="27.8341" fromJunction="3way_44" toJunction="4way_47"/>
<trip id="120" depart="28.067999999999998" fromJunction="4way_28" toJunction="4way_67"/>
<trip id="121" depart="28.3019" fromJunction="3way_79" toJunction="4way_21"/>
<trip id="122" depart="28.5358" fromJunction="4way_29" toJunction="3way_53"/>
<trip id="123" depart="28.7697" fromJunction="4way_34" toJunction="3way_9"/>
<trip id="124" depart="29.0036" fromJunction="4way_23" toJunction="4way_32"/>
<trip id="125" depart="29.2375" fromJunction="3way_7" toJunction="4way_69"/>
<trip id="126" depart="29.4714" fromJunction="4way_39" toJunction="4way_12"/>
<trip id="127" depart="29.7053" fromJunction="3way_54" toJunction="4way_52"/>
<trip id="128" depart="29.9392" fromJunction="3way_17" toJunction="3way_75"/>
<trip id="129" depart="30.173099999999998" fromJunction="4way_25" toJunction="3way_2"/>
<trip id="130" depart="30.407" fromJunction="4way_50" toJunction="4way_31"/>
<trip id="131" depart="30.6409" fromJunction="4way_39" toJunction="3way_63"/>
<trip id="132" depart="30.8748" fromJunction="4way_29" toJunction="3way_5"/>
<trip id="133" depart="31.1087" fromJunction="4way_51" toJunction="4way_61"/>
<trip id="134" depart="31.3426" fromJunction="4way_52" toJunction="3way_18"/>
<trip id="135" depart="31.5765" fromJunction="4way_43" toJunction="3way_76"/>
<trip id="136" depart="31.8104" fromJunction="4way_59" toJunction="4way_34"/>
<trip id="137" depart="32.0443" fromJunction="4way_51" toJunction="4way_66"/>
<trip id="138" depart="32.2782" fromJunction="4way_33" toJunction="3way_54"/>
<trip id="139" depart="32.5121" fromJunction="3way_2" toJunction="4way_57"/>
<trip id="140" depart="32.746" fromJunction="3way_53" toJunction="3way_18"/>
<trip id="141" depart="32.9799" fromJunction="4way_20" toJunction="4way_61"/>
<trip id="142" depart="33.2138" fromJunction="4way_13" toJunction="4way_38"/>
<trip id="143" depart="33.4477" fromJunction="3way_44" toJunction="4way_10"/>
<trip id="144" depart="33.6816" fromJunction="3way_79" toJunction="4way_15"/>
<trip id="145" depart="33.9155" fromJunction="3way_76" toJunction="4way_47"/>
<trip id="146" depart="34.1494" fromJunction="4way_42" toJunction="3way_17"/>
<trip id="147" depart="34.3833" fromJunction="4way_43" toJunction="4way_52"/>
<trip id="148" depart="34.6172" fromJunction="4way_41" toJunction="4way_69"/>
<trip id="149" depart="34.8511" fromJunction="3way_7" toJunction="3way_27"/>
<trip id="150" depart="35.085" fromJunction="3way_76" toJunction="4way_37"/>
<trip id="151" depart="35.3189" fromJunction="3way_5" toJunction="3way_44"/>
<trip id="152" depart="35.5528" fromJunction="3way_1" toJunction="4way_67"/>
<trip id="153" depart="35.786699999999996" fromJunction="3way_53" toJunction="4way_41"/>
<trip id="154" depart="36.0206" fromJunction="3way_75" toJunction="4way_31"/>
<trip id="155" depart="36.2545" fromJunction="4way_12" toJunction="4way_46"/>
<trip id="156" depart="36.4884" fromJunction="4way_67" toJunction="4way_42"/>
<trip id="157" depart="36.7223" fromJunction="3way_44" toJunction="3way_73"/>
<trip id="158" depart="36.9562" fromJunction="3way_45" toJunction="3way_5"/>
<trip id="159" depart="37.1901" fromJunction="4way_11" toJunction="3way_73"/>
<trip id="160" depart="37.424" fromJunction="4way_49" toJunction="4way_40"/>
<trip id="161" depart="37.6579" fromJunction="4way_19" toJunction="3way_63"/>
<trip id="162" depart="37.891799999999996" fromJunction="4way_50" toJunction="3way_71"/>
<trip id="163" depart="38.1257" fromJunction="4way_49" toJunction="3way_5"/>
<trip id="164" depart="38.3596" fromJunction="4way_10" toJunction="3way_74"/>
<trip id="165" depart="38.5935" fromJunction="3way_63" toJunction="4way_39"/>
<trip id="166" depart="38.8274" fromJunction="3way_78" toJunction="4way_10"/>
<trip id="167" depart="39.0613" fromJunction="3way_4" toJunction="4way_11"/>
<trip id="168" depart="39.2952" fromJunction="3way_6" toJunction="4way_59"/>
<trip id="169" depart="39.5291" fromJunction="3way_45" toJunction="4way_47"/>
<trip id="170" depart="39.763" fromJunction="4way_43" toJunction="4way_30"/>
<trip id="171" depart="39.9969" fromJunction="3way_3" toJunction="4way_13"/>
<trip id="172" depart="40.2308" fromJunction="4way_47" toJunction="4way_55"/>
<trip id="173" depart="40.4647" fromJunction="4way_40" toJunction="4way_65"/>
<trip id="174" depart="40.6986" fromJunction="3way_35" toJunction="3way_63"/>
<trip id="175" depart="40.9325" fromJunction="4way_43" toJunction="4way_28"/>
<trip id="176" depart="41.166399999999996" fromJunction="4way_69" toJunction="3way_79"/>
<trip id="177" depart="41.4003" fromJunction="4way_11" toJunction="4way_65"/>
<trip id="178" depart="41.6342" fromJunction="4way_11" toJunction="4way_51"/>
<trip id="179" depart="41.8681" fromJunction="4way_28" toJunction="4way_67"/>
<trip id="180" depart="42.102" fromJunction="4way_49" toJunction="4way_69"/>
<trip id="181" depart="42.3359" fromJunction="3way_27" toJunction="4way_49"/>
<trip id="182" depart="42.5698" fromJunction="4way_66" toJunction="4way_32"/>
<trip id="183" depart="42.8037" fromJunction="3way_62" toJunction="3way_75"/>
<trip id="184" depart="43.0376" fromJunction="4way_43" toJunction="4way_59"/>
<trip id="185" depart="43.271499999999996" fromJunction="4way_39" toJunction="4way_11"/>
<trip id="186" depart="43.5054" fromJunction="4way_11" toJunction="4way_42"/>
<trip id="187" depart="43.7393" fromJunction="4way_30" toJunction="4way_43"/>
<trip id="188" depart="43.9732" fromJunction="4way_69" toJunction="4way_15"/>
<trip id="189" depart="44.2071" fromJunction="3way_62" toJunction="4way_68"/>
<trip id="190" depart="44.441" fromJunction="4way_28" toJunction="4way_66"/>
<trip id="191" depart="44.6749" fromJunction="4way_46" toJunction="3way_5"/>
<trip id="192" depart="44.9088" fromJunction="4way_33" toJunction="3way_74"/>
<trip id="193" depart="45.1427" fromJunction="4way_43" toJunction="3way_3"/>
<trip id="194" depart="45.376599999999996" fromJunction="3way_79" toJunction="3way_2"/>
<trip id="195" depart="45.6105" fromJunction="4way_25" toJunction="4way_28"/>
<trip id="196" depart="45.8444" fromJunction="4way_34" toJunction="3way_17"/>
<trip id="197" depart="46.0783" fromJunction="4way_64" toJunction="4way_42"/>
<trip id="198" depart="46.3122" fromJunction="3way_76" toJunction="3way_27"/>
<trip id="199" depart="46.5461" fromJunction="3way_3" toJunction="4way_57"/>
<trip id="200" depart="46.78" fromJunction="4way_55" toJunction="3way_2"/>
<trip id="201" depart="47.0139" fromJunction="3way_74" toJunction="3way_6"/>
<trip id="202" depart="47.2478" fromJunction="3way_74" toJunction="3way_76"/>
<trip id="203" depart="47.4817" fromJunction="3way_1" toJunction="3way_44"/>
<trip id="204" depart="47.7156" fromJunction="4way_57" toJunction="3way_26"/>
<trip id="205" depart="47.9495" fromJunction="4way_70" toJunction="4way_61"/>
<trip id="206" depart="48.1834" fromJunction="3way_62" toJunction="4way_37"/>
<trip id="207" depart="48.4173" fromJunction="4way_29" toJunction="4way_13"/>
<trip id="208" depart="48.6512" fromJunction="3way_6" toJunction="4way_70"/>
<trip id="209" depart="48.8851" fromJunction="3way_54" toJunction="4way_50"/>
<trip id="210" depart="49.119" fromJunction="4way_31" toJunction="3way_75"/>
<trip id="211" depart="49.3529" fromJunction="4way_31" toJunction="3way_75"/>
<trip id="212" depart="49.5868" fromJunction="4way_46" toJunction="4way_47"/>
<trip id="213" depart="49.8207" fromJunction="3way_54" toJunction="4way_12"/>
<trip id="214" depart="50.0546" fromJunction="4way_37" toJunction="4way_58"/>
<trip id="215" depart="50.2885" fromJunction="4way_15" toJunction="3way_9"/>
<trip id="216" depart="50.5224" fromJunction="3way_4" toJunction="4way_25"/>
<trip id="217" depart="50.756299999999996" fromJunction="3way_18" toJunction="3way_76"/>
<trip id="218" depart="50.9902" fromJunction="4way_61" toJunction="4way_68"/>
<trip id="219" depart="51.2241" fromJunction="4way_69" toJunction="4way_52"/>
<trip id="220" depart="51.458" fromJunction="4way_70" toJunction="3way_54"/>
<trip id="221" depart="51.6919" fromJunction="3way_26" toJunction="3way_74"/>
<trip id="222" depart="51.9258" fromJunction="3way_76" toJunction="4way_43"/>
<trip id="223" depart="52.1597" fromJunction="3way_5" toJunction="4way_49"/>
<trip id="224" depart="52.3936" fromJunction="4way_51" toJunction="4way_14"/>
<trip id="225" depart="52.6275" fromJunction="4way_19" toJunction="3way_73"/>
<trip id="226" depart="52.861399999999996" fromJunction="4way_23" toJunction="4way_10"/>
<trip id="227" depart="53.0953" fromJunction="3way_71" toJunction="3way_75"/>
<trip id="228" depart="53.3292" fromJunction="3way_45" toJunction="4way_64"/>
<trip id="229" depart="53.5631" fromJunction="3way_75" toJunction="4way_24"/>
<trip id="230" depart="53.797" fromJunction="4way_34" toJunction="4way_38"/>
<trip id="231" depart="54.0309" fromJunction="4way_42" toJunction="4way_66"/>
<trip id="232" depart="54.2648" fromJunction="4way_23" toJunction="4way_34"/>
<trip id="233" depart="54.4987" fromJunction="4way_52" toJunction="4way_49"/>
<trip id="234" depart="54.7326" fromJunction="4way_64" toJunction="4way_70"/>
<trip id="235" depart="54.966499999999996" fromJunction="3way_54" toJunction="3way_6"/>
<trip id="236" depart="55.2004" fromJunction="4way_46" toJunction="3way_53"/>
<trip id="237" depart="55.4343" fromJunction="4way_48" toJunction="3way_44"/>
<trip id="238" depart="55.6682" fromJunction="4way_60" toJunction="4way_19"/>
<trip id="239" depart="55.9021" fromJunction="4way_12" toJunction="4way_52"/>
<trip id="240" depart="56.135999999999996" fromJunction="4way_39" toJunction="3way_63"/>
<trip id="241" depart="56.3699" fromJunction="4way_37" toJunction="4way_69"/>
<trip id="242" depart="56.6038" fromJunction="3way_73" toJunction="4way_12"/>
<trip id="243" depart="56.8377" fromJunction="4way_28" toJunction="4way_11"/>
<trip id="244" depart="57.0716" fromJunction="4way_38" toJunction="3way_74"/>
<trip id="245" depart="57.3055" fromJunction="4way_10" toJunction="3way_45"/>
<trip id="246" depart="57.5394" fromJunction="4way_23" toJunction="4way_56"/>
<trip id="247" depart="57.7733" fromJunction="4way_25" toJunction="3way_27"/>
<trip id="248" depart="58.0072" fromJunction="3way_4" toJunction="4way_42"/>
<trip id="249" depart="58.241099999999996" fromJunction="4way_64" toJunction="3way_74"/>
<trip id="250" depart="58.475" fromJunction="3way_18" toJunction="3way_26"/>
<trip id="251" depart="58.7089" fromJunction="4way_40" toJunction="4way_14"/>
<trip id="252" depart="58.9428" fromJunction="4way_58" toJunction="4way_57"/>
<trip id="253" depart="59.1767" fromJunction="3way_18" toJunction="3way_78"/>
<trip id="254" depart="59.4106" fromJunction="4way_51" toJunction="4way_40"/>
<trip id="255" depart="59.6445" fromJunction="3way_63" toJunction="4way_65"/>
<trip id="256" depart="59.8784" fromJunction="4way_58" toJunction="3way_3"/>
<trip id="257" depart="60.1123" fromJunction="4way_10" toJunction="3way_1"/>
<trip id="258" depart="60.346199999999996" fromJunction="4way_25" toJunction="4way_56"/>
<trip id="259" depart="60.5801" fromJunction="4way_37" toJunction="3way_7"/>
<trip id="260" depart="60.814" fromJunction="3way_18" toJunction="3way_2"/>
<trip id="261" depart="61.0479" fromJunction="3way_63" toJunction="4way_57"/>
<trip id="262" depart="61.2818" fromJunction="3way_26" toJunction="3way_77"/>
<trip id="263" depart="61.5157" fromJunction="4way_49" toJunction="4way_30"/>
<trip id="264" depart="61.7496" fromJunction="4way_43" toJunction="4way_31"/>
<trip id="265" depart="61.9835" fromJunction="4way_13" toJunction="3way_1"/>
<trip id="266" depart="62.2174" fromJunction="4way_39" toJunction="4way_48"/>
<trip id="267" depart="62.451299999999996" fromJunction="3way_2" toJunction="4way_52"/>
<trip id="268" depart="62.6852" fromJunction="4way_68" toJunction="4way_49"/>
<trip id="269" depart="62.9191" fromJunction="3way_27" toJunction="4way_47"/>
<trip id="270" depart="63.153" fromJunction="3way_17" toJunction="4way_50"/>
<trip id="271" depart="63.3869" fromJunction="4way_56" toJunction="4way_64"/>
<trip id="272" depart="63.6208" fromJunction="3way_7" toJunction="4way_49"/>
<trip id="273" depart="63.8547" fromJunction="4way_37" toJunction="3way_76"/>
<trip id="274" depart="64.0886" fromJunction="4way_60" toJunction="4way_57"/>
<trip id="275" depart="64.3225" fromJunction="3way_44" toJunction="4way_57"/>
<trip id="276" depart="64.5564" fromJunction="4way_51" toJunction="4way_61"/>
<trip id="277" depart="64.7903" fromJunction="4way_25" toJunction="4way_38"/>
<trip id="278" depart="65.0242" fromJunction="4way_25" toJunction="4way_65"/>
<trip id="279" depart="65.2581" fromJunction="4way_52" toJunction="4way_15"/>
<trip id="280" depart="65.492" fromJunction="3way_3" toJunction="4way_16"/>
<trip id="281" depart="65.7259" fromJunction="4way_19" toJunction="3way_71"/>
<trip id="282" depart="65.9598" fromJunction="3way_45" toJunction="4way_43"/>
<trip id="283" depart="66.19369999999999" fromJunction="4way_60" toJunction="3way_62"/>
<trip id="284" depart="66.4276" fromJunction="4way_69" toJunction="4way_64"/>
<trip id="285" depart="66.6615" fromJunction="4way_22" toJunction="3way_62"/>
<trip id="286" depart="66.8954" fromJunction="3way_6" toJunction="4way_55"/>
<trip id="287" depart="67.1293" fromJunction="3way_74" toJunction="4way_49"/>
<trip id="288" depart="67.3632" fromJunction="3way_5" toJunction="3way_4"/>
<trip id="289" depart="67.5971" fromJunction="4way_69" toJunction="3way_5"/>
<trip id="290" depart="67.831" fromJunction="4way_69" toJunction="4way_14"/>
<trip id="291" depart="68.0649" fromJunction="4way_56" toJunction="4way_31"/>
<trip id="292" depart="68.2988" fromJunction="4way_70" toJunction="3way_45"/>
<trip id="293" depart="68.5327" fromJunction="4way_20" toJunction="3way_9"/>
<trip id="294" depart="68.7666" fromJunction="4way_61" toJunction="4way_19"/>
<trip id="295" depart="69.0005" fromJunction="3way_27" toJunction="3way_71"/>
<trip id="296" depart="69.2344" fromJunction="3way_5" toJunction="4way_40"/>
<trip id="297" depart="69.4683" fromJunction="4way_20" toJunction="4way_48"/>
<trip id="298" depart="69.7022" fromJunction="3way_75" toJunction="3way_63"/>
<trip id="299" depart="69.9361" fromJunction="4way_10" toJunction="4way_47"/>
<trip id="300" depart="70.17" fromJunction="3way_27" toJunction="4way_11"/>
<trip id="301" depart="70.4039" fromJunction="3way_44" toJunction="4way_52"/>
<trip id="302" depart="70.6378" fromJunction="3way_18" toJunction="3way_17"/>
<trip id="303" depart="70.8717" fromJunction="4way_22" toJunction="4way_39"/>
<trip id="304" depart="71.1056" fromJunction="4way_70" toJunction="4way_28"/>
<trip id="305" depart="71.3395" fromJunction="4way_67" toJunction="3way_9"/>
<trip id="306" depart="71.57339999999999" fromJunction="4way_68" toJunction="4way_13"/>
<trip id="307" depart="71.8073" fromJunction="4way_60" toJunction="4way_61"/>
<trip id="308" depart="72.0412" fromJunction="4way_49" toJunction="4way_32"/>
<trip id="309" depart="72.2751" fromJunction="3way_53" toJunction="3way_27"/>
<trip id="310" depart="72.509" fromJunction="3way_75" toJunction="3way_5"/>
<trip id="311" depart="72.7429" fromJunction="4way_56" toJunction="4way_55"/>
<trip id="312" depart="72.9768" fromJunction="4way_43" toJunction="4way_41"/>
<trip id="313" depart="73.2107" fromJunction="3way_26" toJunction="3way_35"/>
<trip id="314" depart="73.4446" fromJunction="4way_23" toJunction="4way_39"/>
<trip id="315" depart="73.6785" fromJunction="4way_34" toJunction="4way_33"/>
<trip id="316" depart="73.9124" fromJunction="4way_28" toJunction="4way_61"/>
<trip id="317" depart="74.1463" fromJunction="3way_53" toJunction="4way_19"/>
<trip id="318" depart="74.3802" fromJunction="4way_22" toJunction="4way_40"/>
<trip id="319" depart="74.6141" fromJunction="3way_17" toJunction="4way_42"/>
<trip id="320" depart="74.848" fromJunction="4way_30" toJunction="4way_38"/>
<trip id="321" depart="75.0819" fromJunction="3way_71" toJunction="3way_75"/>
<trip id="322" depart="75.3158" fromJunction="3way_5" toJunction="4way_42"/>
<trip id="323" depart="75.5497" fromJunction="3way_26" toJunction="4way_20"/>
<trip id="324" depart="75.78359999999999" fromJunction="4way_61" toJunction="4way_11"/>
<trip id="325" depart="76.0175" fromJunction="4way_33" toJunction="4way_46"/>
<trip id="326" depart="76.2514" fromJunction="3way_73" toJunction="3way_35"/>
<trip id="327" depart="76.4853" fromJunction="4way_28" toJunction="4way_37"/>
<trip id="328" depart="76.7192" fromJunction="3way_18" toJunction="4way_31"/>
<trip id="329" depart="76.95309999999999" fromJunction="4way_13" toJunction="4way_58"/>
<trip id="330" depart="77.187" fromJunction="4way_55" toJunction="4way_28"/>
<trip id="331" depart="77.4209" fromJunction="3way_6" toJunction="4way_57"/>
<trip id="332" depart="77.6548" fromJunction="4way_22" toJunction="4way_15"/>
<trip id="333" depart="77.8887" fromJunction="4way_65" toJunction="4way_67"/>
<trip id="334" depart="78.1226" fromJunction="4way_37" toJunction="3way_26"/>
<trip id="335" depart="78.3565" fromJunction="3way_36" toJunction="4way_37"/>
<trip id="336" depart="78.5904" fromJunction="4way_14" toJunction="3way_3"/>
<trip id="337" depart="78.8243" fromJunction="4way_48" toJunction="3way_26"/>
<trip id="338" depart="79.0582" fromJunction="4way_66" toJunction="4way_58"/>
<trip id="339" depart="79.2921" fromJunction="3way_17" toJunction="4way_43"/>
<trip id="340" depart="79.526" fromJunction="3way_3" toJunction="4way_42"/>
<trip id="341" depart="79.7599" fromJunction="4way_37" toJunction="4way_65"/>
<trip id="342" depart="79.9938" fromJunction="4way_10" toJunction="4way_56"/>
<trip id="343" depart="80.2277" fromJunction="3way_2" toJunction="3way_79"/>
<trip id="344" depart="80.4616" fromJunction="4way_24" toJunction="4way_47"/>
<trip id="345" depart="80.6955" fromJunction="3way_76" toJunction="4way_10"/>
<trip id="346" depart="80.9294" fromJunction="3way_17" toJunction="3way_76"/>
<trip id="347" depart="81.16329999999999" fromJunction="3way_6" toJunction="3way_73"/>
<trip id="348" depart="81.3972" fromJunction="4way_33" toJunction="3way_6"/>
<trip id="349" depart="81.6311" fromJunction="4way_21" toJunction="3way_62"/>
<trip id="350" depart="81.865" fromJunction="4way_11" toJunction="4way_41"/>
<trip id="351" depart="82.0989" fromJunction="3way_78" toJunction="3way_53"/>
<trip id="352" depart="82.33279999999999" fromJunction="4way_56" toJunction="4way_55"/>
<trip id="353" depart="82.5667" fromJunction="4way_50" toJunction="3way_18"/>
<trip id="354" depart="82.8006" fromJunction="4way_25" toJunction="4way_23"/>
<trip id="355" depart="83.0345" fromJunction="4way_60" toJunction="3way_3"/>
<trip id="356" depart="83.2684" fromJunction="4way_51" toJunction="4way_28"/>
<trip id="357" depart="83.5023" fromJunction="4way_70" toJunction="4way_49"/>
<trip id="358" depart="83.7362" fromJunction="4way_10" toJunction="4way_32"/>
<trip id="359" depart="83.9701" fromJunction="4way_10" toJunction="4way_38"/>
<trip id="360" depart="84.204" fromJunction="3way_73" toJunction="4way_10"/>
<trip id="361" depart="84.4379" fromJunction="4way_40" toJunction="4way_38"/>
<trip id="362" depart="84.6718" fromJunction="4way_56" toJunction="3way_63"/>
<trip id="363" depart="84.9057" fromJunction="3way_62" toJunction="3way_35"/>
<trip id="364" depart="85.1396" fromJunction="4way_52" toJunction="3way_4"/>
<trip id="365" depart="85.37349999999999" fromJunction="3way_71" toJunction="3way_1"/>
<trip id="366" depart="85.6074" fromJunction="3way_7" toJunction="4way_57"/>
<trip id="367" depart="85.8413" fromJunction="4way_67" toJunction="4way_51"/>
<trip id="368" depart="86.0752" fromJunction="4way_47" toJunction="4way_52"/>
<trip id="369" depart="86.3091" fromJunction="4way_12" toJunction="3way_45"/>
<trip id="370" depart="86.54299999999999" fromJunction="4way_56" toJunction="4way_25"/>
<trip id="371" depart="86.7769" fromJunction="4way_51" toJunction="3way_73"/>
<trip id="372" depart="87.0108" fromJunction="3way_1" toJunction="4way_10"/>
<trip id="373" depart="87.2447" fromJunction="3way_36" toJunction="3way_74"/>
<trip id="374" depart="87.4786" fromJunction="4way_11" toJunction="4way_42"/>
<trip id="375" depart="87.7125" fromJunction="3way_27" toJunction="4way_64"/>
<trip id="376" depart="87.9464" fromJunction="4way_34" toJunction="4way_51"/>
<trip id="377" depart="88.1803" fromJunction="4way_19" toJunction="4way_70"/>
<trip id="378" depart="88.4142" fromJunction="4way_50" toJunction="4way_52"/>
<trip id="379" depart="88.6481" fromJunction="3way_75" toJunction="4way_40"/>
<trip id="380" depart="88.882" fromJunction="3way_62" toJunction="3way_77"/>