<?xml version="1.0" encoding="UTF-8"?>

<!-- generated on 2023-07-28 15:49:39 by Eclipse SUMO netconvert Version 1.12.0
<configuration xmlns:xsi="http://www.w3.org/2001/XMLSchema-instance" xsi:noNamespaceSchemaLocation="http://sumo.dlr.de/xsd/netconvertConfiguration.xsd">

    <input>
        <node-files value="sq.nod.xml"/>
        <edge-files value="sq.edg.xml"/>
    </input>

    <output>
        <output-file value="sq.tmp.net.xml"/>
    </output>

    <processing>
        <lefthand value="true"/>
    </processing>

    <tls_building>
        <tls.discard-simple value="true"/>
        <tls.join value="true"/>
    </tls_building>

    <edge_removal>
        <keep-edges.components value="1"/>
    </edge_removal>

    <junctions>
        <no-turnarounds value="true"/>
    </junctions>

    <report>
        <aggregate-warnings value="5"/>
    </report>

</configuration>
-->

<net version="1.9" junctionCornerDetail="5" lefthand="true" limitTurnSpeed="5.50" xmlns:xsi="http://www.w3.org/2001/XMLSchema-instance" xsi:noNamespaceSchemaLocation="http://sumo.dlr.de/xsd/net_file.xsd">

    <location netOffset="0.00,900.00" convBoundary="0.00,-0.00,900.00,900.00" origBoundary="0.00,-900.00,900.00,0.00" projParameter="!"/>

    <edge id=":3way_1_0" function="internal">
        <lane id=":3way_1_0_0" index="0" speed="6.51" length="9.03" shape="98.40,892.80 98.05,895.25 97.00,897.00 95.25,898.05 92.80,898.40"/>
    </edge>
    <edge id=":3way_1_1" function="internal">
        <lane id=":3way_1_1_0" index="0" speed="8.00" length="14.19" shape="98.40,892.80 98.95,896.65 100.60,899.40 103.35,901.05 107.20,901.60"/>
    </edge>
    <edge id=":3way_1_2" function="internal">
        <lane id=":3way_1_2_0" index="0" speed="6.51" length="9.03" shape="107.20,898.40 104.75,898.05 103.00,897.00 101.95,895.25 101.60,892.80"/>
    </edge>
    <edge id=":3way_1_3" function="internal">
        <lane id=":3way_1_3_0" index="0" speed="13.89" length="14.40" shape="107.20,898.40 92.80,898.40"/>
    </edge>
    <edge id=":3way_1_4" function="internal">
        <lane id=":3way_1_4_0" index="0" speed="13.89" length="14.40" shape="92.80,901.60 107.20,901.60"/>
    </edge>
    <edge id=":3way_1_5" function="internal">
        <lane id=":3way_1_5_0" index="0" speed="8.00" length="4.07" shape="92.80,901.60 96.65,901.05 96.80,900.96"/>
    </edge>
    <edge id=":3way_1_6" function="internal">
        <lane id=":3way_1_6_0" index="0" speed="8.00" length="10.13" shape="96.80,900.96 99.40,899.40 101.05,896.65 101.60,892.80"/>
    </edge>
    <edge id=":3way_10_0" function="internal">
        <lane id=":3way_10_0_0" index="0" speed="13.89" length="14.40" shape="-1.60,792.80 -1.60,807.20"/>
    </edge>
    <edge id=":3way_10_1" function="internal">
        <lane id=":3way_10_1_0" index="0" speed="8.00" length="4.07" shape="-1.60,792.80 -1.05,796.65 -0.96,796.80"/>
    </edge>
    <edge id=":3way_10_6" function="internal">
        <lane id=":3way_10_6_0" index="0" speed="8.00" length="10.13" shape="-0.96,796.80 0.60,799.40 3.35,801.05 7.20,801.60"/>
    </edge>
    <edge id=":3way_10_2" function="internal">
        <lane id=":3way_10_2_0" index="0" speed="6.51" length="9.03" shape="7.20,798.40 4.75,798.05 3.00,797.00 1.95,795.25 1.60,792.80"/>
    </edge>
    <edge id=":3way_10_3" function="internal">
        <lane id=":3way_10_3_0" index="0" speed="8.00" length="14.19" shape="7.20,798.40 3.35,798.95 0.60,800.60 -1.05,803.35 -1.60,807.20"/>
    </edge>
    <edge id=":3way_10_4" function="internal">
        <lane id=":3way_10_4_0" index="0" speed="6.51" length="9.03" shape="1.60,807.20 1.95,804.75 3.00,803.00 4.75,801.95 7.20,801.60"/>
    </edge>
    <edge id=":3way_10_5" function="internal">
        <lane id=":3way_10_5_0" index="0" speed="13.89" length="14.40" shape="1.60,807.20 1.60,792.80"/>
    </edge>
    <edge id=":3way_19_0" function="internal">
        <lane id=":3way_19_0_0" index="0" speed="6.51" length="9.03" shape="898.40,792.80 898.05,795.25 897.00,797.00 895.25,798.05 892.80,798.40"/>
    </edge>
    <edge id=":3way_19_1" function="internal">
        <lane id=":3way_19_1_0" index="0" speed="13.89" length="14.40" shape="898.40,792.80 898.40,807.20"/>
    </edge>
    <edge id=":3way_19_2" function="internal">
        <lane id=":3way_19_2_0" index="0" speed="13.89" length="14.40" shape="901.60,807.20 901.60,792.80"/>
    </edge>
    <edge id=":3way_19_3" function="internal">
        <lane id=":3way_19_3_0" index="0" speed="8.00" length="4.07" shape="901.60,807.20 901.05,803.35 900.96,803.20"/>
    </edge>
    <edge id=":3way_19_6" function="internal">
        <lane id=":3way_19_6_0" index="0" speed="8.00" length="10.13" shape="900.96,803.20 899.40,800.60 896.65,798.95 892.80,798.40"/>
    </edge>
    <edge id=":3way_19_4" function="internal">
        <lane id=":3way_19_4_0" index="0" speed="6.51" length="9.03" shape="892.80,801.60 895.25,801.95 897.00,803.00 898.05,804.75 898.40,807.20"/>
    </edge>
    <edge id=":3way_19_5" function="internal">
        <lane id=":3way_19_5_0" index="0" speed="8.00" length="14.19" shape="892.80,801.60 896.65,801.05 899.40,799.40 901.05,796.65 901.60,792.80"/>
    </edge>
    <edge id=":3way_2_0" function="internal">
        <lane id=":3way_2_0_0" index="0" speed="6.51" length="9.03" shape="198.40,892.80 198.05,895.25 197.00,897.00 195.25,898.05 192.80,898.40"/>
    </edge>
    <edge id=":3way_2_1" function="internal">
        <lane id=":3way_2_1_0" index="0" speed="8.00" length="14.19" shape="198.40,892.80 198.95,896.65 200.60,899.40 203.35,901.05 207.20,901.60"/>
    </edge>
    <edge id=":3way_2_2" function="internal">
        <lane id=":3way_2_2_0" index="0" speed="6.51" length="9.03" shape="207.20,898.40 204.75,898.05 203.00,897.00 201.95,895.25 201.60,892.80"/>
    </edge>
    <edge id=":3way_2_3" function="internal">
        <lane id=":3way_2_3_0" index="0" speed="13.89" length="14.40" shape="207.20,898.40 192.80,898.40"/>
    </edge>
    <edge id=":3way_2_4" function="internal">
        <lane id=":3way_2_4_0" index="0" speed="13.89" length="14.40" shape="192.80,901.60 207.20,901.60"/>
    </edge>
    <edge id=":3way_2_5" function="internal">
        <lane id=":3way_2_5_0" index="0" speed="8.00" length="4.07" shape="192.80,901.60 196.65,901.05 196.80,900.96"/>
    </edge>
    <edge id=":3way_2_6" function="internal">
        <lane id=":3way_2_6_0" index="0" speed="8.00" length="10.13" shape="196.80,900.96 199.40,899.40 201.05,896.65 201.60,892.80"/>
    </edge>
    <edge id=":3way_20_0" function="internal">
        <lane id=":3way_20_0_0" index="0" speed="13.89" length="14.40" shape="-1.60,692.80 -1.60,707.20"/>
    </edge>
    <edge id=":3way_20_1" function="internal">
        <lane id=":3way_20_1_0" index="0" speed="8.00" length="4.07" shape="-1.60,692.80 -1.05,696.65 -0.96,696.80"/>
    </edge>
    <edge id=":3way_20_6" function="internal">
        <lane id=":3way_20_6_0" index="0" speed="8.00" length="10.13" shape="-0.96,696.80 0.60,699.40 3.35,701.05 7.20,701.60"/>
    </edge>
    <edge id=":3way_20_2" function="internal">
        <lane id=":3way_20_2_0" index="0" speed="6.51" length="9.03" shape="7.20,698.40 4.75,698.05 3.00,697.00 1.95,695.25 1.60,692.80"/>
    </edge>
    <edge id=":3way_20_3" function="internal">
        <lane id=":3way_20_3_0" index="0" speed="8.00" length="14.19" shape="7.20,698.40 3.35,698.95 0.60,700.60 -1.05,703.35 -1.60,707.20"/>
    </edge>
    <edge id=":3way_20_4" function="internal">
        <lane id=":3way_20_4_0" index="0" speed="6.51" length="9.03" shape="1.60,707.20 1.95,704.75 3.00,703.00 4.75,701.95 7.20,701.60"/>
    </edge>
    <edge id=":3way_20_5" function="internal">
        <lane id=":3way_20_5_0" index="0" speed="13.89" length="14.40" shape="1.60,707.20 1.60,692.80"/>
    </edge>
    <edge id=":3way_29_0" function="internal">
        <lane id=":3way_29_0_0" index="0" speed="6.51" length="9.03" shape="898.40,692.80 898.05,695.25 897.00,697.00 895.25,698.05 892.80,698.40"/>
    </edge>
    <edge id=":3way_29_1" function="internal">
        <lane id=":3way_29_1_0" index="0" speed="13.89" length="14.40" shape="898.40,692.80 898.40,707.20"/>
    </edge>
    <edge id=":3way_29_2" function="internal">
        <lane id=":3way_29_2_0" index="0" speed="13.89" length="14.40" shape="901.60,707.20 901.60,692.80"/>
    </edge>
    <edge id=":3way_29_3" function="internal">
        <lane id=":3way_29_3_0" index="0" speed="8.00" length="4.07" shape="901.60,707.20 901.05,703.35 900.96,703.20"/>
    </edge>
    <edge id=":3way_29_6" function="internal">
        <lane id=":3way_29_6_0" index="0" speed="8.00" length="10.13" shape="900.96,703.20 899.40,700.60 896.65,698.95 892.80,698.40"/>
    </edge>
    <edge id=":3way_29_4" function="internal">
        <lane id=":3way_29_4_0" index="0" speed="6.51" length="9.03" shape="892.80,701.60 895.25,701.95 897.00,703.00 898.05,704.75 898.40,707.20"/>
    </edge>
    <edge id=":3way_29_5" function="internal">
        <lane id=":3way_29_5_0" index="0" speed="8.00" length="14.19" shape="892.80,701.60 896.65,701.05 899.40,699.40 901.05,696.65 901.60,692.80"/>
    </edge>
    <edge id=":3way_3_0" function="internal">
        <lane id=":3way_3_0_0" index="0" speed="6.51" length="9.03" shape="298.40,892.80 298.05,895.25 297.00,897.00 295.25,898.05 292.80,898.40"/>
    </edge>
    <edge id=":3way_3_1" function="internal">
        <lane id=":3way_3_1_0" index="0" speed="8.00" length="14.19" shape="298.40,892.80 298.95,896.65 300.60,899.40 303.35,901.05 307.20,901.60"/>
    </edge>
    <edge id=":3way_3_2" function="internal">
        <lane id=":3way_3_2_0" index="0" speed="6.51" length="9.03" shape="307.20,898.40 304.75,898.05 303.00,897.00 301.95,895.25 301.60,892.80"/>
    </edge>
    <edge id=":3way_3_3" function="internal">
        <lane id=":3way_3_3_0" index="0" speed="13.89" length="14.40" shape="307.20,898.40 292.80,898.40"/>
    </edge>
    <edge id=":3way_3_4" function="internal">
        <lane id=":3way_3_4_0" index="0" speed="13.89" length="14.40" shape="292.80,901.60 307.20,901.60"/>
    </edge>
    <edge id=":3way_3_5" function="internal">
        <lane id=":3way_3_5_0" index="0" speed="8.00" length="4.07" shape="292.80,901.60 296.65,901.05 296.80,900.96"/>
    </edge>
    <edge id=":3way_3_6" function="internal">
        <lane id=":3way_3_6_0" index="0" speed="8.00" length="10.13" shape="296.80,900.96 299.40,899.40 301.05,896.65 301.60,892.80"/>
    </edge>
    <edge id=":3way_30_0" function="internal">
        <lane id=":3way_30_0_0" index="0" speed="13.89" length="14.40" shape="-1.60,592.80 -1.60,607.20"/>
    </edge>
    <edge id=":3way_30_1" function="internal">
        <lane id=":3way_30_1_0" index="0" speed="8.00" length="4.07" shape="-1.60,592.80 -1.05,596.65 -0.96,596.80"/>
    </edge>
    <edge id=":3way_30_6" function="internal">
        <lane id=":3way_30_6_0" index="0" speed="8.00" length="10.13" shape="-0.96,596.80 0.60,599.40 3.35,601.05 7.20,601.60"/>
    </edge>
    <edge id=":3way_30_2" function="internal">
        <lane id=":3way_30_2_0" index="0" speed="6.51" length="9.03" shape="7.20,598.40 4.75,598.05 3.00,597.00 1.95,595.25 1.60,592.80"/>
    </edge>
    <edge id=":3way_30_3" function="internal">
        <lane id=":3way_30_3_0" index="0" speed="8.00" length="14.19" shape="7.20,598.40 3.35,598.95 0.60,600.60 -1.05,603.35 -1.60,607.20"/>
    </edge>
    <edge id=":3way_30_4" function="internal">
        <lane id=":3way_30_4_0" index="0" speed="6.51" length="9.03" shape="1.60,607.20 1.95,604.75 3.00,603.00 4.75,601.95 7.20,601.60"/>
    </edge>
    <edge id=":3way_30_5" function="internal">
        <lane id=":3way_30_5_0" index="0" speed="13.89" length="14.40" shape="1.60,607.20 1.60,592.80"/>
    </edge>
    <edge id=":3way_39_0" function="internal">
        <lane id=":3way_39_0_0" index="0" speed="6.51" length="9.03" shape="898.40,592.80 898.05,595.25 897.00,597.00 895.25,598.05 892.80,598.40"/>
    </edge>
    <edge id=":3way_39_1" function="internal">
        <lane id=":3way_39_1_0" index="0" speed="13.89" length="14.40" shape="898.40,592.80 898.40,607.20"/>
    </edge>
    <edge id=":3way_39_2" function="internal">
        <lane id=":3way_39_2_0" index="0" speed="13.89" length="14.40" shape="901.60,607.20 901.60,592.80"/>
    </edge>
    <edge id=":3way_39_3" function="internal">
        <lane id=":3way_39_3_0" index="0" speed="8.00" length="4.07" shape="901.60,607.20 901.05,603.35 900.96,603.20"/>
    </edge>
    <edge id=":3way_39_6" function="internal">
        <lane id=":3way_39_6_0" index="0" speed="8.00" length="10.13" shape="900.96,603.20 899.40,600.60 896.65,598.95 892.80,598.40"/>
    </edge>
    <edge id=":3way_39_4" function="internal">
        <lane id=":3way_39_4_0" index="0" speed="6.51" length="9.03" shape="892.80,601.60 895.25,601.95 897.00,603.00 898.05,604.75 898.40,607.20"/>
    </edge>
    <edge id=":3way_39_5" function="internal">
        <lane id=":3way_39_5_0" index="0" speed="8.00" length="14.19" shape="892.80,601.60 896.65,601.05 899.40,599.40 901.05,596.65 901.60,592.80"/>
    </edge>
    <edge id=":3way_4_0" function="internal">
        <lane id=":3way_4_0_0" index="0" speed="6.51" length="9.03" shape="398.40,892.80 398.05,895.25 397.00,897.00 395.25,898.05 392.80,898.40"/>
    </edge>
    <edge id=":3way_4_1" function="internal">
        <lane id=":3way_4_1_0" index="0" speed="8.00" length="14.19" shape="398.40,892.80 398.95,896.65 400.60,899.40 403.35,901.05 407.20,901.60"/>
    </edge>
    <edge id=":3way_4_2" function="internal">
        <lane id=":3way_4_2_0" index="0" speed="6.51" length="9.03" shape="407.20,898.40 404.75,898.05 403.00,897.00 401.95,895.25 401.60,892.80"/>
    </edge>
    <edge id=":3way_4_3" function="internal">
        <lane id=":3way_4_3_0" index="0" speed="13.89" length="14.40" shape="407.20,898.40 392.80,898.40"/>
    </edge>
    <edge id=":3way_4_4" function="internal">
        <lane id=":3way_4_4_0" index="0" speed="13.89" length="14.40" shape="392.80,901.60 407.20,901.60"/>
    </edge>
    <edge id=":3way_4_5" function="internal">
        <lane id=":3way_4_5_0" index="0" speed="8.00" length="4.07" shape="392.80,901.60 396.65,901.05 396.80,900.96"/>
    </edge>
    <edge id=":3way_4_6" function="internal">
        <lane id=":3way_4_6_0" index="0" speed="8.00" length="10.13" shape="396.80,900.96 399.40,899.40 401.05,896.65 401.60,892.80"/>
    </edge>
    <edge id=":3way_40_0" function="internal">
        <lane id=":3way_40_0_0" index="0" speed="13.89" length="14.40" shape="-1.60,492.80 -1.60,507.20"/>
    </edge>
    <edge id=":3way_40_1" function="internal">
        <lane id=":3way_40_1_0" index="0" speed="8.00" length="4.07" shape="-1.60,492.80 -1.05,496.65 -0.96,496.80"/>
    </edge>
    <edge id=":3way_40_6" function="internal">
        <lane id=":3way_40_6_0" index="0" speed="8.00" length="10.13" shape="-0.96,496.80 0.60,499.40 3.35,501.05 7.20,501.60"/>
    </edge>
    <edge id=":3way_40_2" function="internal">
        <lane id=":3way_40_2_0" index="0" speed="6.51" length="9.03" shape="7.20,498.40 4.75,498.05 3.00,497.00 1.95,495.25 1.60,492.80"/>
    </edge>
    <edge id=":3way_40_3" function="internal">
        <lane id=":3way_40_3_0" index="0" speed="8.00" length="14.19" shape="7.20,498.40 3.35,498.95 0.60,500.60 -1.05,503.35 -1.60,507.20"/>
    </edge>
    <edge id=":3way_40_4" function="internal">
        <lane id=":3way_40_4_0" index="0" speed="6.51" length="9.03" shape="1.60,507.20 1.95,504.75 3.00,503.00 4.75,501.95 7.20,501.60"/>
    </edge>
    <edge id=":3way_40_5" function="internal">
        <lane id=":3way_40_5_0" index="0" speed="13.89" length="14.40" shape="1.60,507.20 1.60,492.80"/>
    </edge>
    <edge id=":3way_49_0" function="internal">
        <lane id=":3way_49_0_0" index="0" speed="6.51" length="9.03" shape="898.40,492.80 898.05,495.25 897.00,497.00 895.25,498.05 892.80,498.40"/>
    </edge>
    <edge id=":3way_49_1" function="internal">
        <lane id=":3way_49_1_0" index="0" speed="13.89" length="14.40" shape="898.40,492.80 898.40,507.20"/>
    </edge>
    <edge id=":3way_49_2" function="internal">
        <lane id=":3way_49_2_0" index="0" speed="13.89" length="14.40" shape="901.60,507.20 901.60,492.80"/>
    </edge>
    <edge id=":3way_49_3" function="internal">
        <lane id=":3way_49_3_0" index="0" speed="8.00" length="4.07" shape="901.60,507.20 901.05,503.35 900.96,503.20"/>
    </edge>
    <edge id=":3way_49_6" function="internal">
        <lane id=":3way_49_6_0" index="0" speed="8.00" length="10.13" shape="900.96,503.20 899.40,500.60 896.65,498.95 892.80,498.40"/>
    </edge>
    <edge id=":3way_49_4" function="internal">
        <lane id=":3way_49_4_0" index="0" speed="6.51" length="9.03" shape="892.80,501.60 895.25,501.95 897.00,503.00 898.05,504.75 898.40,507.20"/>
    </edge>
    <edge id=":3way_49_5" function="internal">
        <lane id=":3way_49_5_0" index="0" speed="8.00" length="14.19" shape="892.80,501.60 896.65,501.05 899.40,499.40 901.05,496.65 901.60,492.80"/>
    </edge>
    <edge id=":3way_5_0" function="internal">
        <lane id=":3way_5_0_0" index="0" speed="6.51" length="9.03" shape="498.40,892.80 498.05,895.25 497.00,897.00 495.25,898.05 492.80,898.40"/>
    </edge>
    <edge id=":3way_5_1" function="internal">
        <lane id=":3way_5_1_0" index="0" speed="8.00" length="14.19" shape="498.40,892.80 498.95,896.65 500.60,899.40 503.35,901.05 507.20,901.60"/>
    </edge>
    <edge id=":3way_5_2" function="internal">
        <lane id=":3way_5_2_0" index="0" speed="6.51" length="9.03" shape="507.20,898.40 504.75,898.05 503.00,897.00 501.95,895.25 501.60,892.80"/>
    </edge>
    <edge id=":3way_5_3" function="internal">
        <lane id=":3way_5_3_0" index="0" speed="13.89" length="14.40" shape="507.20,898.40 492.80,898.40"/>
    </edge>
    <edge id=":3way_5_4" function="internal">
        <lane id=":3way_5_4_0" index="0" speed="13.89" length="14.40" shape="492.80,901.60 507.20,901.60"/>
    </edge>
    <edge id=":3way_5_5" function="internal">
        <lane id=":3way_5_5_0" index="0" speed="8.00" length="4.07" shape="492.80,901.60 496.65,901.05 496.80,900.96"/>
    </edge>
    <edge id=":3way_5_6" function="internal">
        <lane id=":3way_5_6_0" index="0" speed="8.00" length="10.13" shape="496.80,900.96 499.40,899.40 501.05,896.65 501.60,892.80"/>
    </edge>
    <edge id=":3way_50_0" function="internal">
        <lane id=":3way_50_0_0" index="0" speed="13.89" length="14.40" shape="-1.60,392.80 -1.60,407.20"/>
    </edge>
    <edge id=":3way_50_1" function="internal">
        <lane id=":3way_50_1_0" index="0" speed="8.00" length="4.07" shape="-1.60,392.80 -1.05,396.65 -0.96,396.80"/>
    </edge>
    <edge id=":3way_50_6" function="internal">
        <lane id=":3way_50_6_0" index="0" speed="8.00" length="10.13" shape="-0.96,396.80 0.60,399.40 3.35,401.05 7.20,401.60"/>
    </edge>
    <edge id=":3way_50_2" function="internal">
        <lane id=":3way_50_2_0" index="0" speed="6.51" length="9.03" shape="7.20,398.40 4.75,398.05 3.00,397.00 1.95,395.25 1.60,392.80"/>
    </edge>
    <edge id=":3way_50_3" function="internal">
        <lane id=":3way_50_3_0" index="0" speed="8.00" length="14.19" shape="7.20,398.40 3.35,398.95 0.60,400.60 -1.05,403.35 -1.60,407.20"/>
    </edge>
    <edge id=":3way_50_4" function="internal">
        <lane id=":3way_50_4_0" index="0" speed="6.51" length="9.03" shape="1.60,407.20 1.95,404.75 3.00,403.00 4.75,401.95 7.20,401.60"/>
    </edge>
    <edge id=":3way_50_5" function="internal">
        <lane id=":3way_50_5_0" index="0" speed="13.89" length="14.40" shape="1.60,407.20 1.60,392.80"/>
    </edge>
    <edge id=":3way_59_0" function="internal">
        <lane id=":3way_59_0_0" index="0" speed="6.51" length="9.03" shape="898.40,392.80 898.05,395.25 897.00,397.00 895.25,398.05 892.80,398.40"/>
    </edge>
    <edge id=":3way_59_1" function="internal">
        <lane id=":3way_59_1_0" index="0" speed="13.89" length="14.40" shape="898.40,392.80 898.40,407.20"/>
    </edge>
    <edge id=":3way_59_2" function="internal">
        <lane id=":3way_59_2_0" index="0" speed="13.89" length="14.40" shape="901.60,407.20 901.60,392.80"/>
    </edge>
    <edge id=":3way_59_3" function="internal">
        <lane id=":3way_59_3_0" index="0" speed="8.00" length="4.07" shape="901.60,407.20 901.05,403.35 900.96,403.20"/>
    </edge>
    <edge id=":3way_59_6" function="internal">
        <lane id=":3way_59_6_0" index="0" speed="8.00" length="10.13" shape="900.96,403.20 899.40,400.60 896.65,398.95 892.80,398.40"/>
    </edge>
    <edge id=":3way_59_4" function="internal">
        <lane id=":3way_59_4_0" index="0" speed="6.51" length="9.03" shape="892.80,401.60 895.25,401.95 897.00,403.00 898.05,404.75 898.40,407.20"/>
    </edge>
    <edge id=":3way_59_5" function="internal">
        <lane id=":3way_59_5_0" index="0" speed="8.00" length="14.19" shape="892.80,401.60 896.65,401.05 899.40,399.40 901.05,396.65 901.60,392.80"/>
    </edge>
    <edge id=":3way_6_0" function="internal">
        <lane id=":3way_6_0_0" index="0" speed="6.51" length="9.03" shape="598.40,892.80 598.05,895.25 597.00,897.00 595.25,898.05 592.80,898.40"/>
    </edge>
    <edge id=":3way_6_1" function="internal">
        <lane id=":3way_6_1_0" index="0" speed="8.00" length="14.19" shape="598.40,892.80 598.95,896.65 600.60,899.40 603.35,901.05 607.20,901.60"/>
    </edge>
    <edge id=":3way_6_2" function="internal">
        <lane id=":3way_6_2_0" index="0" speed="6.51" length="9.03" shape="607.20,898.40 604.75,898.05 603.00,897.00 601.95,895.25 601.60,892.80"/>
    </edge>
    <edge id=":3way_6_3" function="internal">
        <lane id=":3way_6_3_0" index="0" speed="13.89" length="14.40" shape="607.20,898.40 592.80,898.40"/>
    </edge>
    <edge id=":3way_6_4" function="internal">
        <lane id=":3way_6_4_0" index="0" speed="13.89" length="14.40" shape="592.80,901.60 607.20,901.60"/>
    </edge>
    <edge id=":3way_6_5" function="internal">
        <lane id=":3way_6_5_0" index="0" speed="8.00" length="4.07" shape="592.80,901.60 596.65,901.05 596.80,900.96"/>
    </edge>
    <edge id=":3way_6_6" function="internal">
        <lane id=":3way_6_6_0" index="0" speed="8.00" length="10.13" shape="596.80,900.96 599.40,899.40 601.05,896.65 601.60,892.80"/>
    </edge>
    <edge id=":3way_60_0" function="internal">
        <lane id=":3way_60_0_0" index="0" speed="13.89" length="14.40" shape="-1.60,292.80 -1.60,307.20"/>
    </edge>
    <edge id=":3way_60_1" function="internal">
        <lane id=":3way_60_1_0" index="0" speed="8.00" length="4.07" shape="-1.60,292.80 -1.05,296.65 -0.96,296.80"/>
    </edge>
    <edge id=":3way_60_6" function="internal">
        <lane id=":3way_60_6_0" index="0" speed="8.00" length="10.13" shape="-0.96,296.80 0.60,299.40 3.35,301.05 7.20,301.60"/>
    </edge>
    <edge id=":3way_60_2" function="internal">
        <lane id=":3way_60_2_0" index="0" speed="6.51" length="9.03" shape="7.20,298.40 4.75,298.05 3.00,297.00 1.95,295.25 1.60,292.80"/>
    </edge>
    <edge id=":3way_60_3" function="internal">
        <lane id=":3way_60_3_0" index="0" speed="8.00" length="14.19" shape="7.20,298.40 3.35,298.95 0.60,300.60 -1.05,303.35 -1.60,307.20"/>
    </edge>
    <edge id=":3way_60_4" function="internal">
        <lane id=":3way_60_4_0" index="0" speed="6.51" length="9.03" shape="1.60,307.20 1.95,304.75 3.00,303.00 4.75,301.95 7.20,301.60"/>
    </edge>
    <edge id=":3way_60_5" function="internal">
        <lane id=":3way_60_5_0" index="0" speed="13.89" length="14.40" shape="1.60,307.20 1.60,292.80"/>
    </edge>
    <edge id=":3way_69_0" function="internal">
        <lane id=":3way_69_0_0" index="0" speed="6.51" length="9.03" shape="898.40,292.80 898.05,295.25 897.00,297.00 895.25,298.05 892.80,298.40"/>
    </edge>
    <edge id=":3way_69_1" function="internal">
        <lane id=":3way_69_1_0" index="0" speed="13.89" length="14.40" shape="898.40,292.80 898.40,307.20"/>
    </edge>
    <edge id=":3way_69_2" function="internal">
        <lane id=":3way_69_2_0" index="0" speed="13.89" length="14.40" shape="901.60,307.20 901.60,292.80"/>
    </edge>
    <edge id=":3way_69_3" function="internal">
        <lane id=":3way_69_3_0" index="0" speed="8.00" length="4.07" shape="901.60,307.20 901.05,303.35 900.96,303.20"/>
    </edge>
    <edge id=":3way_69_6" function="internal">
        <lane id=":3way_69_6_0" index="0" speed="8.00" length="10.13" shape="900.96,303.20 899.40,300.60 896.65,298.95 892.80,298.40"/>
    </edge>
    <edge id=":3way_69_4" function="internal">
        <lane id=":3way_69_4_0" index="0" speed="6.51" length="9.03" shape="892.80,301.60 895.25,301.95 897.00,303.00 898.05,304.75 898.40,307.20"/>
    </edge>
    <edge id=":3way_69_5" function="internal">
        <lane id=":3way_69_5_0" index="0" speed="8.00" length="14.19" shape="892.80,301.60 896.65,301.05 899.40,299.40 901.05,296.65 901.60,292.80"/>
    </edge>
    <edge id=":3way_7_0" function="internal">
        <lane id=":3way_7_0_0" index="0" speed="6.51" length="9.03" shape="698.40,892.80 698.05,895.25 697.00,897.00 695.25,898.05 692.80,898.40"/>
    </edge>
    <edge id=":3way_7_1" function="internal">
        <lane id=":3way_7_1_0" index="0" speed="8.00" length="14.19" shape="698.40,892.80 698.95,896.65 700.60,899.40 703.35,901.05 707.20,901.60"/>
    </edge>
    <edge id=":3way_7_2" function="internal">
        <lane id=":3way_7_2_0" index="0" speed="6.51" length="9.03" shape="707.20,898.40 704.75,898.05 703.00,897.00 701.95,895.25 701.60,892.80"/>
    </edge>
    <edge id=":3way_7_3" function="internal">
        <lane id=":3way_7_3_0" index="0" speed="13.89" length="14.40" shape="707.20,898.40 692.80,898.40"/>
    </edge>
    <edge id=":3way_7_4" function="internal">
        <lane id=":3way_7_4_0" index="0" speed="13.89" length="14.40" shape="692.80,901.60 707.20,901.60"/>
    </edge>
    <edge id=":3way_7_5" function="internal">
        <lane id=":3way_7_5_0" index="0" speed="8.00" length="4.07" shape="692.80,901.60 696.65,901.05 696.80,900.96"/>
    </edge>
    <edge id=":3way_7_6" function="internal">
        <lane id=":3way_7_6_0" index="0" speed="8.00" length="10.13" shape="696.80,900.96 699.40,899.40 701.05,896.65 701.60,892.80"/>
    </edge>
    <edge id=":3way_70_0" function="internal">
        <lane id=":3way_70_0_0" index="0" speed="13.89" length="14.40" shape="-1.60,192.80 -1.60,207.20"/>
    </edge>
    <edge id=":3way_70_1" function="internal">
        <lane id=":3way_70_1_0" index="0" speed="8.00" length="4.07" shape="-1.60,192.80 -1.05,196.65 -0.96,196.80"/>
    </edge>
    <edge id=":3way_70_6" function="internal">
        <lane id=":3way_70_6_0" index="0" speed="8.00" length="10.13" shape="-0.96,196.80 0.60,199.40 3.35,201.05 7.20,201.60"/>
    </edge>
    <edge id=":3way_70_2" function="internal">
        <lane id=":3way_70_2_0" index="0" speed="6.51" length="9.03" shape="7.20,198.40 4.75,198.05 3.00,197.00 1.95,195.25 1.60,192.80"/>
    </edge>
    <edge id=":3way_70_3" function="internal">
        <lane id=":3way_70_3_0" index="0" speed="8.00" length="14.19" shape="7.20,198.40 3.35,198.95 0.60,200.60 -1.05,203.35 -1.60,207.20"/>
    </edge>
    <edge id=":3way_70_4" function="internal">
        <lane id=":3way_70_4_0" index="0" speed="6.51" length="9.03" shape="1.60,207.20 1.95,204.75 3.00,203.00 4.75,201.95 7.20,201.60"/>
    </edge>
    <edge id=":3way_70_5" function="internal">
        <lane id=":3way_70_5_0" index="0" speed="13.89" length="14.40" shape="1.60,207.20 1.60,192.80"/>
    </edge>
    <edge id=":3way_79_0" function="internal">
        <lane id=":3way_79_0_0" index="0" speed="6.51" length="9.03" shape="898.40,192.80 898.05,195.25 897.00,197.00 895.25,198.05 892.80,198.40"/>
    </edge>
    <edge id=":3way_79_1" function="internal">
        <lane id=":3way_79_1_0" index="0" speed="13.89" length="14.40" shape="898.40,192.80 898.40,207.20"/>
    </edge>
    <edge id=":3way_79_2" function="internal">
        <lane id=":3way_79_2_0" index="0" speed="13.89" length="14.40" shape="901.60,207.20 901.60,192.80"/>
    </edge>
    <edge id=":3way_79_3" function="internal">
        <lane id=":3way_79_3_0" index="0" speed="8.00" length="4.07" shape="901.60,207.20 901.05,203.35 900.96,203.20"/>
    </edge>
    <edge id=":3way_79_6" function="internal">
        <lane id=":3way_79_6_0" index="0" speed="8.00" length="10.13" shape="900.96,203.20 899.40,200.60 896.65,198.95 892.80,198.40"/>
    </edge>
    <edge id=":3way_79_4" function="internal">
        <lane id=":3way_79_4_0" index="0" speed="6.51" length="9.03" shape="892.80,201.60 895.25,201.95 897.00,203.00 898.05,204.75 898.40,207.20"/>
    </edge>
    <edge id=":3way_79_5" function="internal">
        <lane id=":3way_79_5_0" index="0" speed="8.00" length="14.19" shape="892.80,201.60 896.65,201.05 899.40,199.40 901.05,196.65 901.60,192.80"/>
    </edge>
    <edge id=":3way_8_0" function="internal">
        <lane id=":3way_8_0_0" index="0" speed="6.51" length="9.03" shape="798.40,892.80 798.05,895.25 797.00,897.00 795.25,898.05 792.80,898.40"/>
    </edge>
    <edge id=":3way_8_1" function="internal">
        <lane id=":3way_8_1_0" index="0" speed="8.00" length="14.19" shape="798.40,892.80 798.95,896.65 800.60,899.40 803.35,901.05 807.20,901.60"/>
    </edge>
    <edge id=":3way_8_2" function="internal">
        <lane id=":3way_8_2_0" index="0" speed="6.51" length="9.03" shape="807.20,898.40 804.75,898.05 803.00,897.00 801.95,895.25 801.60,892.80"/>
    </edge>
    <edge id=":3way_8_3" function="internal">
        <lane id=":3way_8_3_0" index="0" speed="13.89" length="14.40" shape="807.20,898.40 792.80,898.40"/>
    </edge>
    <edge id=":3way_8_4" function="internal">
        <lane id=":3way_8_4_0" index="0" speed="13.89" length="14.40" shape="792.80,901.60 807.20,901.60"/>
    </edge>
    <edge id=":3way_8_5" function="internal">
        <lane id=":3way_8_5_0" index="0" speed="8.00" length="4.07" shape="792.80,901.60 796.65,901.05 796.80,900.96"/>
    </edge>